* Extracted by KLayout with SKY130 LVS runset on : 21/11/2024 23:17

.SUBCKT RO_LVT_101St_x10 RON GND DUT_Gate RO DUT_Header VDD DUT_Footer
+ Drain_Sense Drain_Force OUT
M$1 VDD \$285 \$146 VDD sky130_fd_pr__pfet_01v8_lvt L=350000 W=19000000
+ AS=4.275e+12 AD=4.275e+12 PS=30300000 PD=30300000
M$5 VDD \$146 \$147 VDD sky130_fd_pr__pfet_01v8_lvt L=350000 W=19000000
+ AS=4.275e+12 AD=4.275e+12 PS=30300000 PD=30300000
M$9 VDD \$147 \$148 VDD sky130_fd_pr__pfet_01v8_lvt L=350000 W=19000000
+ AS=4.275e+12 AD=4.275e+12 PS=30300000 PD=30300000
M$13 VDD \$148 \$149 VDD sky130_fd_pr__pfet_01v8_lvt L=350000 W=19000000
+ AS=4.275e+12 AD=4.275e+12 PS=30300000 PD=30300000
M$17 VDD \$149 \$150 VDD sky130_fd_pr__pfet_01v8_lvt L=350000 W=19000000
+ AS=4.275e+12 AD=4.275e+12 PS=30300000 PD=30300000
M$21 VDD \$150 \$151 VDD sky130_fd_pr__pfet_01v8_lvt L=350000 W=19000000
+ AS=4.275e+12 AD=4.275e+12 PS=30300000 PD=30300000
M$25 VDD \$151 \$152 VDD sky130_fd_pr__pfet_01v8_lvt L=350000 W=19000000
+ AS=4.275e+12 AD=4.275e+12 PS=30300000 PD=30300000
M$29 VDD \$152 \$153 VDD sky130_fd_pr__pfet_01v8_lvt L=350000 W=19000000
+ AS=4.275e+12 AD=4.275e+12 PS=30300000 PD=30300000
M$33 VDD \$153 \$154 VDD sky130_fd_pr__pfet_01v8_lvt L=350000 W=19000000
+ AS=4.275e+12 AD=4.275e+12 PS=30300000 PD=30300000
M$37 VDD \$154 \$155 VDD sky130_fd_pr__pfet_01v8_lvt L=350000 W=19000000
+ AS=4.275e+12 AD=4.275e+12 PS=30300000 PD=30300000
M$41 VDD \$155 \$156 VDD sky130_fd_pr__pfet_01v8_lvt L=350000 W=19000000
+ AS=4.275e+12 AD=4.275e+12 PS=30300000 PD=30300000
M$45 VDD \$156 \$157 VDD sky130_fd_pr__pfet_01v8_lvt L=350000 W=19000000
+ AS=4.275e+12 AD=4.275e+12 PS=30300000 PD=30300000
M$49 VDD \$157 \$158 VDD sky130_fd_pr__pfet_01v8_lvt L=350000 W=19000000
+ AS=4.275e+12 AD=4.275e+12 PS=30300000 PD=30300000
M$53 VDD \$158 \$159 VDD sky130_fd_pr__pfet_01v8_lvt L=350000 W=19000000
+ AS=4.275e+12 AD=4.275e+12 PS=30300000 PD=30300000
M$57 VDD \$159 \$160 VDD sky130_fd_pr__pfet_01v8_lvt L=350000 W=19000000
+ AS=4.275e+12 AD=4.275e+12 PS=30300000 PD=30300000
M$61 VDD \$160 \$161 VDD sky130_fd_pr__pfet_01v8_lvt L=350000 W=19000000
+ AS=4.275e+12 AD=4.275e+12 PS=30300000 PD=30300000
M$65 VDD \$161 \$162 VDD sky130_fd_pr__pfet_01v8_lvt L=350000 W=19000000
+ AS=4.275e+12 AD=4.275e+12 PS=30300000 PD=30300000
M$69 VDD \$162 \$163 VDD sky130_fd_pr__pfet_01v8_lvt L=350000 W=19000000
+ AS=4.275e+12 AD=4.275e+12 PS=30300000 PD=30300000
M$73 VDD \$163 \$164 VDD sky130_fd_pr__pfet_01v8_lvt L=350000 W=19000000
+ AS=4.275e+12 AD=4.275e+12 PS=30300000 PD=30300000
M$77 VDD \$164 \$165 VDD sky130_fd_pr__pfet_01v8_lvt L=350000 W=19000000
+ AS=4.275e+12 AD=4.275e+12 PS=30300000 PD=30300000
M$81 VDD \$165 \$166 VDD sky130_fd_pr__pfet_01v8_lvt L=350000 W=19000000
+ AS=4.275e+12 AD=4.275e+12 PS=30300000 PD=30300000
M$85 VDD \$166 \$167 VDD sky130_fd_pr__pfet_01v8_lvt L=350000 W=19000000
+ AS=4.275e+12 AD=4.275e+12 PS=30300000 PD=30300000
M$89 VDD \$167 \$168 VDD sky130_fd_pr__pfet_01v8_lvt L=350000 W=19000000
+ AS=4.275e+12 AD=4.275e+12 PS=30300000 PD=30300000
M$93 VDD \$168 \$169 VDD sky130_fd_pr__pfet_01v8_lvt L=350000 W=19000000
+ AS=4.275e+12 AD=4.275e+12 PS=30300000 PD=30300000
M$97 VDD \$169 \$170 VDD sky130_fd_pr__pfet_01v8_lvt L=350000 W=19000000
+ AS=4.275e+12 AD=4.275e+12 PS=30300000 PD=30300000
M$101 VDD \$170 \$171 VDD sky130_fd_pr__pfet_01v8_lvt L=350000 W=19000000
+ AS=4.275e+12 AD=4.275e+12 PS=30300000 PD=30300000
M$105 VDD \$171 \$172 VDD sky130_fd_pr__pfet_01v8_lvt L=350000 W=19000000
+ AS=4.275e+12 AD=4.275e+12 PS=30300000 PD=30300000
M$109 VDD \$172 \$173 VDD sky130_fd_pr__pfet_01v8_lvt L=350000 W=19000000
+ AS=4.275e+12 AD=4.275e+12 PS=30300000 PD=30300000
M$113 VDD \$173 \$174 VDD sky130_fd_pr__pfet_01v8_lvt L=350000 W=19000000
+ AS=4.275e+12 AD=4.275e+12 PS=30300000 PD=30300000
M$117 VDD \$174 \$175 VDD sky130_fd_pr__pfet_01v8_lvt L=350000 W=19000000
+ AS=4.275e+12 AD=4.275e+12 PS=30300000 PD=30300000
M$121 VDD \$175 \$176 VDD sky130_fd_pr__pfet_01v8_lvt L=350000 W=19000000
+ AS=4.275e+12 AD=4.275e+12 PS=30300000 PD=30300000
M$125 VDD \$176 \$177 VDD sky130_fd_pr__pfet_01v8_lvt L=350000 W=19000000
+ AS=4.275e+12 AD=4.275e+12 PS=30300000 PD=30300000
M$129 VDD \$177 \$178 VDD sky130_fd_pr__pfet_01v8_lvt L=350000 W=19000000
+ AS=4.275e+12 AD=4.275e+12 PS=30300000 PD=30300000
M$133 VDD \$178 \$179 VDD sky130_fd_pr__pfet_01v8_lvt L=350000 W=19000000
+ AS=4.275e+12 AD=4.275e+12 PS=30300000 PD=30300000
M$137 VDD \$179 \$180 VDD sky130_fd_pr__pfet_01v8_lvt L=350000 W=19000000
+ AS=4.275e+12 AD=4.275e+12 PS=30300000 PD=30300000
M$141 VDD \$180 \$181 VDD sky130_fd_pr__pfet_01v8_lvt L=350000 W=19000000
+ AS=4.275e+12 AD=4.275e+12 PS=30300000 PD=30300000
M$145 VDD \$181 \$182 VDD sky130_fd_pr__pfet_01v8_lvt L=350000 W=19000000
+ AS=4.275e+12 AD=4.275e+12 PS=30300000 PD=30300000
M$149 VDD \$182 \$183 VDD sky130_fd_pr__pfet_01v8_lvt L=350000 W=19000000
+ AS=4.275e+12 AD=4.275e+12 PS=30300000 PD=30300000
M$153 VDD \$183 \$184 VDD sky130_fd_pr__pfet_01v8_lvt L=350000 W=19000000
+ AS=4.275e+12 AD=4.275e+12 PS=30300000 PD=30300000
M$157 VDD \$184 \$185 VDD sky130_fd_pr__pfet_01v8_lvt L=350000 W=19000000
+ AS=4.275e+12 AD=4.275e+12 PS=30300000 PD=30300000
M$161 VDD \$185 \$186 VDD sky130_fd_pr__pfet_01v8_lvt L=350000 W=19000000
+ AS=4.275e+12 AD=4.275e+12 PS=30300000 PD=30300000
M$165 VDD \$186 \$187 VDD sky130_fd_pr__pfet_01v8_lvt L=350000 W=19000000
+ AS=4.275e+12 AD=4.275e+12 PS=30300000 PD=30300000
M$169 VDD \$187 \$188 VDD sky130_fd_pr__pfet_01v8_lvt L=350000 W=19000000
+ AS=4.275e+12 AD=4.275e+12 PS=30300000 PD=30300000
M$173 VDD \$188 \$189 VDD sky130_fd_pr__pfet_01v8_lvt L=350000 W=19000000
+ AS=4.275e+12 AD=4.275e+12 PS=30300000 PD=30300000
M$177 \$338 \$189 \$286 VDD sky130_fd_pr__pfet_01v8_lvt L=350000 W=19000000
+ AS=4.275e+12 AD=4.275e+12 PS=30300000 PD=30300000
M$181 VDD RON \$338 VDD sky130_fd_pr__pfet_01v8_lvt L=350000 W=190000000
+ AS=2.92125e+13 AD=2.92125e+13 PS=207050000 PD=207050000
M$221 \$339 \$286 \$191 VDD sky130_fd_pr__pfet_01v8_lvt L=350000 W=19000000
+ AS=4.275e+12 AD=4.275e+12 PS=30300000 PD=30300000
M$225 VDD DUT_Footer \$339 VDD sky130_fd_pr__pfet_01v8_lvt L=350000 W=190000000
+ AS=2.92125e+13 AD=2.92125e+13 PS=207050000 PD=207050000
M$265 \$191 RO Drain_Sense VDD sky130_fd_pr__pfet_01v8_lvt L=350000 W=19000000
+ AS=4.275e+12 AD=4.275e+12 PS=30300000 PD=30300000
M$269 \$191 RO Drain_Force VDD sky130_fd_pr__pfet_01v8_lvt L=350000 W=19000000
+ AS=4.275e+12 AD=4.275e+12 PS=30300000 PD=30300000
M$273 \$342 \$191 \$287 VDD sky130_fd_pr__pfet_01v8_lvt L=350000 W=19000000
+ AS=4.275e+12 AD=4.275e+12 PS=30300000 PD=30300000
M$277 VDD RON \$342 VDD sky130_fd_pr__pfet_01v8_lvt L=350000 W=190000000
+ AS=2.92125e+13 AD=2.92125e+13 PS=207050000 PD=207050000
M$317 \$146 VDD \$193 VDD sky130_fd_pr__pfet_01v8_lvt L=350000 W=450000
+ AS=135000000000 AD=135000000000 PS=1500000 PD=1500000
M$318 VDD \$597 \$285 VDD sky130_fd_pr__pfet_01v8_lvt L=350000 W=19000000
+ AS=4.275e+12 AD=4.275e+12 PS=30300000 PD=30300000
M$322 \$146 VDD \$194 VDD sky130_fd_pr__pfet_01v8_lvt L=350000 W=450000
+ AS=135000000000 AD=135000000000 PS=1500000 PD=1500000
M$323 \$147 VDD \$195 VDD sky130_fd_pr__pfet_01v8_lvt L=350000 W=450000
+ AS=135000000000 AD=135000000000 PS=1500000 PD=1500000
M$324 VDD \$598 \$597 VDD sky130_fd_pr__pfet_01v8_lvt L=350000 W=19000000
+ AS=4.275e+12 AD=4.275e+12 PS=30300000 PD=30300000
M$328 \$147 VDD \$196 VDD sky130_fd_pr__pfet_01v8_lvt L=350000 W=450000
+ AS=135000000000 AD=135000000000 PS=1500000 PD=1500000
M$329 \$148 VDD \$197 VDD sky130_fd_pr__pfet_01v8_lvt L=350000 W=450000
+ AS=135000000000 AD=135000000000 PS=1500000 PD=1500000
M$330 VDD \$599 \$598 VDD sky130_fd_pr__pfet_01v8_lvt L=350000 W=19000000
+ AS=4.275e+12 AD=4.275e+12 PS=30300000 PD=30300000
M$334 \$148 VDD \$198 VDD sky130_fd_pr__pfet_01v8_lvt L=350000 W=450000
+ AS=135000000000 AD=135000000000 PS=1500000 PD=1500000
M$335 \$149 VDD \$199 VDD sky130_fd_pr__pfet_01v8_lvt L=350000 W=450000
+ AS=135000000000 AD=135000000000 PS=1500000 PD=1500000
M$336 VDD \$600 \$599 VDD sky130_fd_pr__pfet_01v8_lvt L=350000 W=19000000
+ AS=4.275e+12 AD=4.275e+12 PS=30300000 PD=30300000
M$340 \$149 VDD \$200 VDD sky130_fd_pr__pfet_01v8_lvt L=350000 W=450000
+ AS=135000000000 AD=135000000000 PS=1500000 PD=1500000
M$341 \$150 VDD \$201 VDD sky130_fd_pr__pfet_01v8_lvt L=350000 W=450000
+ AS=135000000000 AD=135000000000 PS=1500000 PD=1500000
M$342 VDD \$601 \$600 VDD sky130_fd_pr__pfet_01v8_lvt L=350000 W=19000000
+ AS=4.275e+12 AD=4.275e+12 PS=30300000 PD=30300000
M$346 \$150 VDD \$202 VDD sky130_fd_pr__pfet_01v8_lvt L=350000 W=450000
+ AS=135000000000 AD=135000000000 PS=1500000 PD=1500000
M$347 \$151 VDD \$203 VDD sky130_fd_pr__pfet_01v8_lvt L=350000 W=450000
+ AS=135000000000 AD=135000000000 PS=1500000 PD=1500000
M$348 VDD \$602 \$601 VDD sky130_fd_pr__pfet_01v8_lvt L=350000 W=19000000
+ AS=4.275e+12 AD=4.275e+12 PS=30300000 PD=30300000
M$352 \$151 VDD \$204 VDD sky130_fd_pr__pfet_01v8_lvt L=350000 W=450000
+ AS=135000000000 AD=135000000000 PS=1500000 PD=1500000
M$353 \$152 VDD \$205 VDD sky130_fd_pr__pfet_01v8_lvt L=350000 W=450000
+ AS=135000000000 AD=135000000000 PS=1500000 PD=1500000
M$354 VDD \$603 \$602 VDD sky130_fd_pr__pfet_01v8_lvt L=350000 W=19000000
+ AS=4.275e+12 AD=4.275e+12 PS=30300000 PD=30300000
M$358 \$152 VDD \$206 VDD sky130_fd_pr__pfet_01v8_lvt L=350000 W=450000
+ AS=135000000000 AD=135000000000 PS=1500000 PD=1500000
M$359 \$153 VDD \$207 VDD sky130_fd_pr__pfet_01v8_lvt L=350000 W=450000
+ AS=135000000000 AD=135000000000 PS=1500000 PD=1500000
M$360 VDD \$604 \$603 VDD sky130_fd_pr__pfet_01v8_lvt L=350000 W=19000000
+ AS=4.275e+12 AD=4.275e+12 PS=30300000 PD=30300000
M$364 \$153 VDD \$208 VDD sky130_fd_pr__pfet_01v8_lvt L=350000 W=450000
+ AS=135000000000 AD=135000000000 PS=1500000 PD=1500000
M$365 \$154 VDD \$209 VDD sky130_fd_pr__pfet_01v8_lvt L=350000 W=450000
+ AS=135000000000 AD=135000000000 PS=1500000 PD=1500000
M$366 VDD \$605 \$604 VDD sky130_fd_pr__pfet_01v8_lvt L=350000 W=19000000
+ AS=4.275e+12 AD=4.275e+12 PS=30300000 PD=30300000
M$370 \$154 VDD \$210 VDD sky130_fd_pr__pfet_01v8_lvt L=350000 W=450000
+ AS=135000000000 AD=135000000000 PS=1500000 PD=1500000
M$371 \$155 VDD \$211 VDD sky130_fd_pr__pfet_01v8_lvt L=350000 W=450000
+ AS=135000000000 AD=135000000000 PS=1500000 PD=1500000
M$372 VDD \$606 \$605 VDD sky130_fd_pr__pfet_01v8_lvt L=350000 W=19000000
+ AS=4.275e+12 AD=4.275e+12 PS=30300000 PD=30300000
M$376 \$155 VDD \$212 VDD sky130_fd_pr__pfet_01v8_lvt L=350000 W=450000
+ AS=135000000000 AD=135000000000 PS=1500000 PD=1500000
M$377 \$156 VDD \$213 VDD sky130_fd_pr__pfet_01v8_lvt L=350000 W=450000
+ AS=135000000000 AD=135000000000 PS=1500000 PD=1500000
M$378 VDD \$607 \$606 VDD sky130_fd_pr__pfet_01v8_lvt L=350000 W=19000000
+ AS=4.275e+12 AD=4.275e+12 PS=30300000 PD=30300000
M$382 \$156 VDD \$214 VDD sky130_fd_pr__pfet_01v8_lvt L=350000 W=450000
+ AS=135000000000 AD=135000000000 PS=1500000 PD=1500000
M$383 \$157 VDD \$215 VDD sky130_fd_pr__pfet_01v8_lvt L=350000 W=450000
+ AS=135000000000 AD=135000000000 PS=1500000 PD=1500000
M$384 VDD \$608 \$607 VDD sky130_fd_pr__pfet_01v8_lvt L=350000 W=19000000
+ AS=4.275e+12 AD=4.275e+12 PS=30300000 PD=30300000
M$388 \$157 VDD \$216 VDD sky130_fd_pr__pfet_01v8_lvt L=350000 W=450000
+ AS=135000000000 AD=135000000000 PS=1500000 PD=1500000
M$389 \$158 VDD \$217 VDD sky130_fd_pr__pfet_01v8_lvt L=350000 W=450000
+ AS=135000000000 AD=135000000000 PS=1500000 PD=1500000
M$390 VDD \$609 \$608 VDD sky130_fd_pr__pfet_01v8_lvt L=350000 W=19000000
+ AS=4.275e+12 AD=4.275e+12 PS=30300000 PD=30300000
M$394 \$158 VDD \$218 VDD sky130_fd_pr__pfet_01v8_lvt L=350000 W=450000
+ AS=135000000000 AD=135000000000 PS=1500000 PD=1500000
M$395 \$159 VDD \$219 VDD sky130_fd_pr__pfet_01v8_lvt L=350000 W=450000
+ AS=135000000000 AD=135000000000 PS=1500000 PD=1500000
M$396 VDD \$610 \$609 VDD sky130_fd_pr__pfet_01v8_lvt L=350000 W=19000000
+ AS=4.275e+12 AD=4.275e+12 PS=30300000 PD=30300000
M$400 \$159 VDD \$220 VDD sky130_fd_pr__pfet_01v8_lvt L=350000 W=450000
+ AS=135000000000 AD=135000000000 PS=1500000 PD=1500000
M$401 \$160 VDD \$221 VDD sky130_fd_pr__pfet_01v8_lvt L=350000 W=450000
+ AS=135000000000 AD=135000000000 PS=1500000 PD=1500000
M$402 VDD \$611 \$610 VDD sky130_fd_pr__pfet_01v8_lvt L=350000 W=19000000
+ AS=4.275e+12 AD=4.275e+12 PS=30300000 PD=30300000
M$406 \$160 VDD \$222 VDD sky130_fd_pr__pfet_01v8_lvt L=350000 W=450000
+ AS=135000000000 AD=135000000000 PS=1500000 PD=1500000
M$407 \$161 VDD \$223 VDD sky130_fd_pr__pfet_01v8_lvt L=350000 W=450000
+ AS=135000000000 AD=135000000000 PS=1500000 PD=1500000
M$408 VDD \$612 \$611 VDD sky130_fd_pr__pfet_01v8_lvt L=350000 W=19000000
+ AS=4.275e+12 AD=4.275e+12 PS=30300000 PD=30300000
M$412 \$161 VDD \$224 VDD sky130_fd_pr__pfet_01v8_lvt L=350000 W=450000
+ AS=135000000000 AD=135000000000 PS=1500000 PD=1500000
M$413 \$162 VDD \$225 VDD sky130_fd_pr__pfet_01v8_lvt L=350000 W=450000
+ AS=135000000000 AD=135000000000 PS=1500000 PD=1500000
M$414 VDD \$613 \$612 VDD sky130_fd_pr__pfet_01v8_lvt L=350000 W=19000000
+ AS=4.275e+12 AD=4.275e+12 PS=30300000 PD=30300000
M$418 \$162 VDD \$226 VDD sky130_fd_pr__pfet_01v8_lvt L=350000 W=450000
+ AS=135000000000 AD=135000000000 PS=1500000 PD=1500000
M$419 \$163 VDD \$227 VDD sky130_fd_pr__pfet_01v8_lvt L=350000 W=450000
+ AS=135000000000 AD=135000000000 PS=1500000 PD=1500000
M$420 VDD \$614 \$613 VDD sky130_fd_pr__pfet_01v8_lvt L=350000 W=19000000
+ AS=4.275e+12 AD=4.275e+12 PS=30300000 PD=30300000
M$424 \$163 VDD \$228 VDD sky130_fd_pr__pfet_01v8_lvt L=350000 W=450000
+ AS=135000000000 AD=135000000000 PS=1500000 PD=1500000
M$425 \$164 VDD \$229 VDD sky130_fd_pr__pfet_01v8_lvt L=350000 W=450000
+ AS=135000000000 AD=135000000000 PS=1500000 PD=1500000
M$426 VDD \$615 \$614 VDD sky130_fd_pr__pfet_01v8_lvt L=350000 W=19000000
+ AS=4.275e+12 AD=4.275e+12 PS=30300000 PD=30300000
M$430 \$164 VDD \$230 VDD sky130_fd_pr__pfet_01v8_lvt L=350000 W=450000
+ AS=135000000000 AD=135000000000 PS=1500000 PD=1500000
M$431 \$165 VDD \$231 VDD sky130_fd_pr__pfet_01v8_lvt L=350000 W=450000
+ AS=135000000000 AD=135000000000 PS=1500000 PD=1500000
M$432 VDD \$616 \$615 VDD sky130_fd_pr__pfet_01v8_lvt L=350000 W=19000000
+ AS=4.275e+12 AD=4.275e+12 PS=30300000 PD=30300000
M$436 \$165 VDD \$232 VDD sky130_fd_pr__pfet_01v8_lvt L=350000 W=450000
+ AS=135000000000 AD=135000000000 PS=1500000 PD=1500000
M$437 \$166 VDD \$233 VDD sky130_fd_pr__pfet_01v8_lvt L=350000 W=450000
+ AS=135000000000 AD=135000000000 PS=1500000 PD=1500000
M$438 VDD \$617 \$616 VDD sky130_fd_pr__pfet_01v8_lvt L=350000 W=19000000
+ AS=4.275e+12 AD=4.275e+12 PS=30300000 PD=30300000
M$442 \$166 VDD \$234 VDD sky130_fd_pr__pfet_01v8_lvt L=350000 W=450000
+ AS=135000000000 AD=135000000000 PS=1500000 PD=1500000
M$443 \$167 VDD \$235 VDD sky130_fd_pr__pfet_01v8_lvt L=350000 W=450000
+ AS=135000000000 AD=135000000000 PS=1500000 PD=1500000
M$444 VDD \$618 \$617 VDD sky130_fd_pr__pfet_01v8_lvt L=350000 W=19000000
+ AS=4.275e+12 AD=4.275e+12 PS=30300000 PD=30300000
M$448 \$167 VDD \$236 VDD sky130_fd_pr__pfet_01v8_lvt L=350000 W=450000
+ AS=135000000000 AD=135000000000 PS=1500000 PD=1500000
M$449 \$168 VDD \$237 VDD sky130_fd_pr__pfet_01v8_lvt L=350000 W=450000
+ AS=135000000000 AD=135000000000 PS=1500000 PD=1500000
M$450 VDD \$619 \$618 VDD sky130_fd_pr__pfet_01v8_lvt L=350000 W=19000000
+ AS=4.275e+12 AD=4.275e+12 PS=30300000 PD=30300000
M$454 \$168 VDD \$238 VDD sky130_fd_pr__pfet_01v8_lvt L=350000 W=450000
+ AS=135000000000 AD=135000000000 PS=1500000 PD=1500000
M$455 \$169 VDD \$239 VDD sky130_fd_pr__pfet_01v8_lvt L=350000 W=450000
+ AS=135000000000 AD=135000000000 PS=1500000 PD=1500000
M$456 VDD \$620 \$619 VDD sky130_fd_pr__pfet_01v8_lvt L=350000 W=19000000
+ AS=4.275e+12 AD=4.275e+12 PS=30300000 PD=30300000
M$460 \$169 VDD \$240 VDD sky130_fd_pr__pfet_01v8_lvt L=350000 W=450000
+ AS=135000000000 AD=135000000000 PS=1500000 PD=1500000
M$461 \$170 VDD \$241 VDD sky130_fd_pr__pfet_01v8_lvt L=350000 W=450000
+ AS=135000000000 AD=135000000000 PS=1500000 PD=1500000
M$462 VDD \$621 \$620 VDD sky130_fd_pr__pfet_01v8_lvt L=350000 W=19000000
+ AS=4.275e+12 AD=4.275e+12 PS=30300000 PD=30300000
M$466 \$170 VDD \$242 VDD sky130_fd_pr__pfet_01v8_lvt L=350000 W=450000
+ AS=135000000000 AD=135000000000 PS=1500000 PD=1500000
M$467 \$171 VDD \$243 VDD sky130_fd_pr__pfet_01v8_lvt L=350000 W=450000
+ AS=135000000000 AD=135000000000 PS=1500000 PD=1500000
M$468 VDD \$622 \$621 VDD sky130_fd_pr__pfet_01v8_lvt L=350000 W=19000000
+ AS=4.275e+12 AD=4.275e+12 PS=30300000 PD=30300000
M$472 \$171 VDD \$244 VDD sky130_fd_pr__pfet_01v8_lvt L=350000 W=450000
+ AS=135000000000 AD=135000000000 PS=1500000 PD=1500000
M$473 \$172 VDD \$245 VDD sky130_fd_pr__pfet_01v8_lvt L=350000 W=450000
+ AS=135000000000 AD=135000000000 PS=1500000 PD=1500000
M$474 VDD \$623 \$622 VDD sky130_fd_pr__pfet_01v8_lvt L=350000 W=19000000
+ AS=4.275e+12 AD=4.275e+12 PS=30300000 PD=30300000
M$478 \$172 VDD \$246 VDD sky130_fd_pr__pfet_01v8_lvt L=350000 W=450000
+ AS=135000000000 AD=135000000000 PS=1500000 PD=1500000
M$479 \$173 VDD \$247 VDD sky130_fd_pr__pfet_01v8_lvt L=350000 W=450000
+ AS=135000000000 AD=135000000000 PS=1500000 PD=1500000
M$480 VDD \$624 \$623 VDD sky130_fd_pr__pfet_01v8_lvt L=350000 W=19000000
+ AS=4.275e+12 AD=4.275e+12 PS=30300000 PD=30300000
M$484 \$173 VDD \$248 VDD sky130_fd_pr__pfet_01v8_lvt L=350000 W=450000
+ AS=135000000000 AD=135000000000 PS=1500000 PD=1500000
M$485 \$174 VDD \$249 VDD sky130_fd_pr__pfet_01v8_lvt L=350000 W=450000
+ AS=135000000000 AD=135000000000 PS=1500000 PD=1500000
M$486 VDD \$625 \$624 VDD sky130_fd_pr__pfet_01v8_lvt L=350000 W=19000000
+ AS=4.275e+12 AD=4.275e+12 PS=30300000 PD=30300000
M$490 \$174 VDD \$250 VDD sky130_fd_pr__pfet_01v8_lvt L=350000 W=450000
+ AS=135000000000 AD=135000000000 PS=1500000 PD=1500000
M$491 \$175 VDD \$251 VDD sky130_fd_pr__pfet_01v8_lvt L=350000 W=450000
+ AS=135000000000 AD=135000000000 PS=1500000 PD=1500000
M$492 VDD \$626 \$625 VDD sky130_fd_pr__pfet_01v8_lvt L=350000 W=19000000
+ AS=4.275e+12 AD=4.275e+12 PS=30300000 PD=30300000
M$496 \$175 VDD \$252 VDD sky130_fd_pr__pfet_01v8_lvt L=350000 W=450000
+ AS=135000000000 AD=135000000000 PS=1500000 PD=1500000
M$497 \$176 VDD \$253 VDD sky130_fd_pr__pfet_01v8_lvt L=350000 W=450000
+ AS=135000000000 AD=135000000000 PS=1500000 PD=1500000
M$498 VDD \$627 \$626 VDD sky130_fd_pr__pfet_01v8_lvt L=350000 W=19000000
+ AS=4.275e+12 AD=4.275e+12 PS=30300000 PD=30300000
M$502 \$176 VDD \$254 VDD sky130_fd_pr__pfet_01v8_lvt L=350000 W=450000
+ AS=135000000000 AD=135000000000 PS=1500000 PD=1500000
M$503 \$177 VDD \$255 VDD sky130_fd_pr__pfet_01v8_lvt L=350000 W=450000
+ AS=135000000000 AD=135000000000 PS=1500000 PD=1500000
M$504 VDD \$628 \$627 VDD sky130_fd_pr__pfet_01v8_lvt L=350000 W=19000000
+ AS=4.275e+12 AD=4.275e+12 PS=30300000 PD=30300000
M$508 \$177 VDD \$256 VDD sky130_fd_pr__pfet_01v8_lvt L=350000 W=450000
+ AS=135000000000 AD=135000000000 PS=1500000 PD=1500000
M$509 \$178 VDD \$257 VDD sky130_fd_pr__pfet_01v8_lvt L=350000 W=450000
+ AS=135000000000 AD=135000000000 PS=1500000 PD=1500000
M$510 VDD \$629 \$628 VDD sky130_fd_pr__pfet_01v8_lvt L=350000 W=19000000
+ AS=4.275e+12 AD=4.275e+12 PS=30300000 PD=30300000
M$514 \$178 VDD \$258 VDD sky130_fd_pr__pfet_01v8_lvt L=350000 W=450000
+ AS=135000000000 AD=135000000000 PS=1500000 PD=1500000
M$515 \$179 VDD \$259 VDD sky130_fd_pr__pfet_01v8_lvt L=350000 W=450000
+ AS=135000000000 AD=135000000000 PS=1500000 PD=1500000
M$516 VDD \$630 \$629 VDD sky130_fd_pr__pfet_01v8_lvt L=350000 W=19000000
+ AS=4.275e+12 AD=4.275e+12 PS=30300000 PD=30300000
M$520 \$179 VDD \$260 VDD sky130_fd_pr__pfet_01v8_lvt L=350000 W=450000
+ AS=135000000000 AD=135000000000 PS=1500000 PD=1500000
M$521 \$180 VDD \$261 VDD sky130_fd_pr__pfet_01v8_lvt L=350000 W=450000
+ AS=135000000000 AD=135000000000 PS=1500000 PD=1500000
M$522 VDD \$631 \$630 VDD sky130_fd_pr__pfet_01v8_lvt L=350000 W=19000000
+ AS=4.275e+12 AD=4.275e+12 PS=30300000 PD=30300000
M$526 \$180 VDD \$262 VDD sky130_fd_pr__pfet_01v8_lvt L=350000 W=450000
+ AS=135000000000 AD=135000000000 PS=1500000 PD=1500000
M$527 \$181 VDD \$263 VDD sky130_fd_pr__pfet_01v8_lvt L=350000 W=450000
+ AS=135000000000 AD=135000000000 PS=1500000 PD=1500000
M$528 VDD \$632 \$631 VDD sky130_fd_pr__pfet_01v8_lvt L=350000 W=19000000
+ AS=4.275e+12 AD=4.275e+12 PS=30300000 PD=30300000
M$532 \$181 VDD \$264 VDD sky130_fd_pr__pfet_01v8_lvt L=350000 W=450000
+ AS=135000000000 AD=135000000000 PS=1500000 PD=1500000
M$533 \$182 VDD \$265 VDD sky130_fd_pr__pfet_01v8_lvt L=350000 W=450000
+ AS=135000000000 AD=135000000000 PS=1500000 PD=1500000
M$534 VDD \$633 \$632 VDD sky130_fd_pr__pfet_01v8_lvt L=350000 W=19000000
+ AS=4.275e+12 AD=4.275e+12 PS=30300000 PD=30300000
M$538 \$182 VDD \$266 VDD sky130_fd_pr__pfet_01v8_lvt L=350000 W=450000
+ AS=135000000000 AD=135000000000 PS=1500000 PD=1500000
M$539 \$183 VDD \$267 VDD sky130_fd_pr__pfet_01v8_lvt L=350000 W=450000
+ AS=135000000000 AD=135000000000 PS=1500000 PD=1500000
M$540 VDD \$634 \$633 VDD sky130_fd_pr__pfet_01v8_lvt L=350000 W=19000000
+ AS=4.275e+12 AD=4.275e+12 PS=30300000 PD=30300000
M$544 \$183 VDD \$268 VDD sky130_fd_pr__pfet_01v8_lvt L=350000 W=450000
+ AS=135000000000 AD=135000000000 PS=1500000 PD=1500000
M$545 \$184 VDD \$269 VDD sky130_fd_pr__pfet_01v8_lvt L=350000 W=450000
+ AS=135000000000 AD=135000000000 PS=1500000 PD=1500000
M$546 VDD \$635 \$634 VDD sky130_fd_pr__pfet_01v8_lvt L=350000 W=19000000
+ AS=4.275e+12 AD=4.275e+12 PS=30300000 PD=30300000
M$550 \$184 VDD \$270 VDD sky130_fd_pr__pfet_01v8_lvt L=350000 W=450000
+ AS=135000000000 AD=135000000000 PS=1500000 PD=1500000
M$551 \$185 VDD \$271 VDD sky130_fd_pr__pfet_01v8_lvt L=350000 W=450000
+ AS=135000000000 AD=135000000000 PS=1500000 PD=1500000
M$552 VDD \$636 \$635 VDD sky130_fd_pr__pfet_01v8_lvt L=350000 W=19000000
+ AS=4.275e+12 AD=4.275e+12 PS=30300000 PD=30300000
M$556 \$185 VDD \$272 VDD sky130_fd_pr__pfet_01v8_lvt L=350000 W=450000
+ AS=135000000000 AD=135000000000 PS=1500000 PD=1500000
M$557 \$186 VDD \$273 VDD sky130_fd_pr__pfet_01v8_lvt L=350000 W=450000
+ AS=135000000000 AD=135000000000 PS=1500000 PD=1500000
M$558 VDD \$637 \$636 VDD sky130_fd_pr__pfet_01v8_lvt L=350000 W=19000000
+ AS=4.275e+12 AD=4.275e+12 PS=30300000 PD=30300000
M$562 \$186 VDD \$274 VDD sky130_fd_pr__pfet_01v8_lvt L=350000 W=450000
+ AS=135000000000 AD=135000000000 PS=1500000 PD=1500000
M$563 \$187 VDD \$275 VDD sky130_fd_pr__pfet_01v8_lvt L=350000 W=450000
+ AS=135000000000 AD=135000000000 PS=1500000 PD=1500000
M$564 VDD \$638 \$637 VDD sky130_fd_pr__pfet_01v8_lvt L=350000 W=19000000
+ AS=4.275e+12 AD=4.275e+12 PS=30300000 PD=30300000
M$568 \$187 VDD \$276 VDD sky130_fd_pr__pfet_01v8_lvt L=350000 W=450000
+ AS=135000000000 AD=135000000000 PS=1500000 PD=1500000
M$569 \$188 VDD \$277 VDD sky130_fd_pr__pfet_01v8_lvt L=350000 W=450000
+ AS=135000000000 AD=135000000000 PS=1500000 PD=1500000
M$570 VDD \$639 \$638 VDD sky130_fd_pr__pfet_01v8_lvt L=350000 W=19000000
+ AS=4.275e+12 AD=4.275e+12 PS=30300000 PD=30300000
M$574 \$188 VDD \$278 VDD sky130_fd_pr__pfet_01v8_lvt L=350000 W=450000
+ AS=135000000000 AD=135000000000 PS=1500000 PD=1500000
M$575 \$189 VDD \$279 VDD sky130_fd_pr__pfet_01v8_lvt L=350000 W=450000
+ AS=135000000000 AD=135000000000 PS=1500000 PD=1500000
M$576 VDD \$640 \$639 VDD sky130_fd_pr__pfet_01v8_lvt L=350000 W=19000000
+ AS=4.275e+12 AD=4.275e+12 PS=30300000 PD=30300000
M$580 \$189 VDD \$280 VDD sky130_fd_pr__pfet_01v8_lvt L=350000 W=450000
+ AS=135000000000 AD=135000000000 PS=1500000 PD=1500000
M$581 VDD \$641 \$640 VDD sky130_fd_pr__pfet_01v8_lvt L=350000 W=19000000
+ AS=4.275e+12 AD=4.275e+12 PS=30300000 PD=30300000
M$585 VDD \$642 \$641 VDD sky130_fd_pr__pfet_01v8_lvt L=350000 W=19000000
+ AS=4.275e+12 AD=4.275e+12 PS=30300000 PD=30300000
M$589 VDD \$643 \$642 VDD sky130_fd_pr__pfet_01v8_lvt L=350000 W=19000000
+ AS=4.275e+12 AD=4.275e+12 PS=30300000 PD=30300000
M$593 \$286 RO DUT_Gate VDD sky130_fd_pr__pfet_01v8_lvt L=350000 W=450000
+ AS=135000000000 AD=135000000000 PS=1500000 PD=1500000
M$594 \$286 RO \$281 VDD sky130_fd_pr__pfet_01v8_lvt L=350000 W=450000
+ AS=135000000000 AD=135000000000 PS=1500000 PD=1500000
M$595 VDD \$644 \$643 VDD sky130_fd_pr__pfet_01v8_lvt L=350000 W=19000000
+ AS=4.275e+12 AD=4.275e+12 PS=30300000 PD=30300000
M$599 VDD \$645 \$644 VDD sky130_fd_pr__pfet_01v8_lvt L=350000 W=19000000
+ AS=4.275e+12 AD=4.275e+12 PS=30300000 PD=30300000
M$603 VDD \$646 \$645 VDD sky130_fd_pr__pfet_01v8_lvt L=350000 W=19000000
+ AS=4.275e+12 AD=4.275e+12 PS=30300000 PD=30300000
M$607 VDD \$647 \$646 VDD sky130_fd_pr__pfet_01v8_lvt L=350000 W=19000000
+ AS=4.275e+12 AD=4.275e+12 PS=30300000 PD=30300000
M$611 VDD \$648 \$647 VDD sky130_fd_pr__pfet_01v8_lvt L=350000 W=19000000
+ AS=4.275e+12 AD=4.275e+12 PS=30300000 PD=30300000
M$615 VDD OUT \$648 VDD sky130_fd_pr__pfet_01v8_lvt L=350000 W=19000000
+ AS=4.275e+12 AD=4.275e+12 PS=30300000 PD=30300000
M$619 VDD \$287 OUT VDD sky130_fd_pr__pfet_01v8_lvt L=350000 W=19000000
+ AS=4.275e+12 AD=4.275e+12 PS=30300000 PD=30300000
M$623 \$287 VDD GND VDD sky130_fd_pr__pfet_01v8_lvt L=350000 W=450000
+ AS=135000000000 AD=135000000000 PS=1500000 PD=1500000
M$624 \$287 VDD \$282 VDD sky130_fd_pr__pfet_01v8_lvt L=350000 W=450000
+ AS=135000000000 AD=135000000000 PS=1500000 PD=1500000
M$625 \$650 VDD \$285 VDD sky130_fd_pr__pfet_01v8_lvt L=350000 W=450000
+ AS=135000000000 AD=135000000000 PS=1500000 PD=1500000
M$626 \$651 VDD \$285 VDD sky130_fd_pr__pfet_01v8_lvt L=350000 W=450000
+ AS=135000000000 AD=135000000000 PS=1500000 PD=1500000
M$627 \$652 VDD \$597 VDD sky130_fd_pr__pfet_01v8_lvt L=350000 W=450000
+ AS=135000000000 AD=135000000000 PS=1500000 PD=1500000
M$628 \$653 VDD \$597 VDD sky130_fd_pr__pfet_01v8_lvt L=350000 W=450000
+ AS=135000000000 AD=135000000000 PS=1500000 PD=1500000
M$629 \$654 VDD \$598 VDD sky130_fd_pr__pfet_01v8_lvt L=350000 W=450000
+ AS=135000000000 AD=135000000000 PS=1500000 PD=1500000
M$630 \$655 VDD \$598 VDD sky130_fd_pr__pfet_01v8_lvt L=350000 W=450000
+ AS=135000000000 AD=135000000000 PS=1500000 PD=1500000
M$631 \$656 VDD \$599 VDD sky130_fd_pr__pfet_01v8_lvt L=350000 W=450000
+ AS=135000000000 AD=135000000000 PS=1500000 PD=1500000
M$632 \$657 VDD \$599 VDD sky130_fd_pr__pfet_01v8_lvt L=350000 W=450000
+ AS=135000000000 AD=135000000000 PS=1500000 PD=1500000
M$633 \$658 VDD \$600 VDD sky130_fd_pr__pfet_01v8_lvt L=350000 W=450000
+ AS=135000000000 AD=135000000000 PS=1500000 PD=1500000
M$634 \$659 VDD \$600 VDD sky130_fd_pr__pfet_01v8_lvt L=350000 W=450000
+ AS=135000000000 AD=135000000000 PS=1500000 PD=1500000
M$635 \$660 VDD \$601 VDD sky130_fd_pr__pfet_01v8_lvt L=350000 W=450000
+ AS=135000000000 AD=135000000000 PS=1500000 PD=1500000
M$636 \$661 VDD \$601 VDD sky130_fd_pr__pfet_01v8_lvt L=350000 W=450000
+ AS=135000000000 AD=135000000000 PS=1500000 PD=1500000
M$637 \$662 VDD \$602 VDD sky130_fd_pr__pfet_01v8_lvt L=350000 W=450000
+ AS=135000000000 AD=135000000000 PS=1500000 PD=1500000
M$638 \$663 VDD \$602 VDD sky130_fd_pr__pfet_01v8_lvt L=350000 W=450000
+ AS=135000000000 AD=135000000000 PS=1500000 PD=1500000
M$639 \$664 VDD \$603 VDD sky130_fd_pr__pfet_01v8_lvt L=350000 W=450000
+ AS=135000000000 AD=135000000000 PS=1500000 PD=1500000
M$640 \$665 VDD \$603 VDD sky130_fd_pr__pfet_01v8_lvt L=350000 W=450000
+ AS=135000000000 AD=135000000000 PS=1500000 PD=1500000
M$641 \$666 VDD \$604 VDD sky130_fd_pr__pfet_01v8_lvt L=350000 W=450000
+ AS=135000000000 AD=135000000000 PS=1500000 PD=1500000
M$642 \$667 VDD \$604 VDD sky130_fd_pr__pfet_01v8_lvt L=350000 W=450000
+ AS=135000000000 AD=135000000000 PS=1500000 PD=1500000
M$643 \$668 VDD \$605 VDD sky130_fd_pr__pfet_01v8_lvt L=350000 W=450000
+ AS=135000000000 AD=135000000000 PS=1500000 PD=1500000
M$644 \$669 VDD \$605 VDD sky130_fd_pr__pfet_01v8_lvt L=350000 W=450000
+ AS=135000000000 AD=135000000000 PS=1500000 PD=1500000
M$645 \$670 VDD \$606 VDD sky130_fd_pr__pfet_01v8_lvt L=350000 W=450000
+ AS=135000000000 AD=135000000000 PS=1500000 PD=1500000
M$646 \$671 VDD \$606 VDD sky130_fd_pr__pfet_01v8_lvt L=350000 W=450000
+ AS=135000000000 AD=135000000000 PS=1500000 PD=1500000
M$647 \$672 VDD \$607 VDD sky130_fd_pr__pfet_01v8_lvt L=350000 W=450000
+ AS=135000000000 AD=135000000000 PS=1500000 PD=1500000
M$648 \$673 VDD \$607 VDD sky130_fd_pr__pfet_01v8_lvt L=350000 W=450000
+ AS=135000000000 AD=135000000000 PS=1500000 PD=1500000
M$649 \$674 VDD \$608 VDD sky130_fd_pr__pfet_01v8_lvt L=350000 W=450000
+ AS=135000000000 AD=135000000000 PS=1500000 PD=1500000
M$650 \$675 VDD \$608 VDD sky130_fd_pr__pfet_01v8_lvt L=350000 W=450000
+ AS=135000000000 AD=135000000000 PS=1500000 PD=1500000
M$651 \$676 VDD \$609 VDD sky130_fd_pr__pfet_01v8_lvt L=350000 W=450000
+ AS=135000000000 AD=135000000000 PS=1500000 PD=1500000
M$652 \$677 VDD \$609 VDD sky130_fd_pr__pfet_01v8_lvt L=350000 W=450000
+ AS=135000000000 AD=135000000000 PS=1500000 PD=1500000
M$653 \$678 VDD \$610 VDD sky130_fd_pr__pfet_01v8_lvt L=350000 W=450000
+ AS=135000000000 AD=135000000000 PS=1500000 PD=1500000
M$654 \$679 VDD \$610 VDD sky130_fd_pr__pfet_01v8_lvt L=350000 W=450000
+ AS=135000000000 AD=135000000000 PS=1500000 PD=1500000
M$655 \$680 VDD \$611 VDD sky130_fd_pr__pfet_01v8_lvt L=350000 W=450000
+ AS=135000000000 AD=135000000000 PS=1500000 PD=1500000
M$656 \$681 VDD \$611 VDD sky130_fd_pr__pfet_01v8_lvt L=350000 W=450000
+ AS=135000000000 AD=135000000000 PS=1500000 PD=1500000
M$657 \$682 VDD \$612 VDD sky130_fd_pr__pfet_01v8_lvt L=350000 W=450000
+ AS=135000000000 AD=135000000000 PS=1500000 PD=1500000
M$658 \$683 VDD \$612 VDD sky130_fd_pr__pfet_01v8_lvt L=350000 W=450000
+ AS=135000000000 AD=135000000000 PS=1500000 PD=1500000
M$659 \$684 VDD \$613 VDD sky130_fd_pr__pfet_01v8_lvt L=350000 W=450000
+ AS=135000000000 AD=135000000000 PS=1500000 PD=1500000
M$660 \$685 VDD \$613 VDD sky130_fd_pr__pfet_01v8_lvt L=350000 W=450000
+ AS=135000000000 AD=135000000000 PS=1500000 PD=1500000
M$661 \$686 VDD \$614 VDD sky130_fd_pr__pfet_01v8_lvt L=350000 W=450000