* Extracted by KLayout with SKY130 LVS runset on : 05/11/2024 16:26

.SUBCKT RO_LVT_101St_x1 RON GND DUT_Gate RO DUT_Header OUT VDD DUT_Footer
+ Drain_Sense Drain\x20Force Out
M$1 VDD OUT \$241 VDD sky130_fd_pr__pfet_01v8_lvt L=350000 W=19000000
+ AS=4.275e+12 AD=4.275e+12 PS=30300000 PD=30300000
M$5 VDD \$241 \$243 VDD sky130_fd_pr__pfet_01v8_lvt L=350000 W=19000000
+ AS=4.275e+12 AD=4.275e+12 PS=30300000 PD=30300000
M$9 VDD \$243 \$245 VDD sky130_fd_pr__pfet_01v8_lvt L=350000 W=19000000
+ AS=4.275e+12 AD=4.275e+12 PS=30300000 PD=30300000
M$13 VDD \$245 \$247 VDD sky130_fd_pr__pfet_01v8_lvt L=350000 W=19000000
+ AS=4.275e+12 AD=4.275e+12 PS=30300000 PD=30300000
M$17 VDD \$247 \$249 VDD sky130_fd_pr__pfet_01v8_lvt L=350000 W=19000000
+ AS=4.275e+12 AD=4.275e+12 PS=30300000 PD=30300000
M$21 VDD \$249 \$251 VDD sky130_fd_pr__pfet_01v8_lvt L=350000 W=19000000
+ AS=4.275e+12 AD=4.275e+12 PS=30300000 PD=30300000
M$25 VDD \$251 \$253 VDD sky130_fd_pr__pfet_01v8_lvt L=350000 W=19000000
+ AS=4.275e+12 AD=4.275e+12 PS=30300000 PD=30300000
M$29 VDD \$253 \$255 VDD sky130_fd_pr__pfet_01v8_lvt L=350000 W=19000000
+ AS=4.275e+12 AD=4.275e+12 PS=30300000 PD=30300000
M$33 VDD \$255 \$257 VDD sky130_fd_pr__pfet_01v8_lvt L=350000 W=19000000
+ AS=4.275e+12 AD=4.275e+12 PS=30300000 PD=30300000
M$37 VDD \$257 \$259 VDD sky130_fd_pr__pfet_01v8_lvt L=350000 W=19000000
+ AS=4.275e+12 AD=4.275e+12 PS=30300000 PD=30300000
M$41 VDD \$259 \$261 VDD sky130_fd_pr__pfet_01v8_lvt L=350000 W=19000000
+ AS=4.275e+12 AD=4.275e+12 PS=30300000 PD=30300000
M$45 VDD \$261 \$263 VDD sky130_fd_pr__pfet_01v8_lvt L=350000 W=19000000
+ AS=4.275e+12 AD=4.275e+12 PS=30300000 PD=30300000
M$49 VDD \$263 \$265 VDD sky130_fd_pr__pfet_01v8_lvt L=350000 W=19000000
+ AS=4.275e+12 AD=4.275e+12 PS=30300000 PD=30300000
M$53 VDD \$265 \$267 VDD sky130_fd_pr__pfet_01v8_lvt L=350000 W=19000000
+ AS=4.275e+12 AD=4.275e+12 PS=30300000 PD=30300000
M$57 VDD \$267 \$269 VDD sky130_fd_pr__pfet_01v8_lvt L=350000 W=19000000
+ AS=4.275e+12 AD=4.275e+12 PS=30300000 PD=30300000
M$61 VDD \$269 \$271 VDD sky130_fd_pr__pfet_01v8_lvt L=350000 W=19000000
+ AS=4.275e+12 AD=4.275e+12 PS=30300000 PD=30300000
M$65 VDD \$271 \$273 VDD sky130_fd_pr__pfet_01v8_lvt L=350000 W=19000000
+ AS=4.275e+12 AD=4.275e+12 PS=30300000 PD=30300000
M$69 VDD \$273 \$275 VDD sky130_fd_pr__pfet_01v8_lvt L=350000 W=19000000
+ AS=4.275e+12 AD=4.275e+12 PS=30300000 PD=30300000
M$73 VDD \$275 \$277 VDD sky130_fd_pr__pfet_01v8_lvt L=350000 W=19000000
+ AS=4.275e+12 AD=4.275e+12 PS=30300000 PD=30300000
M$77 VDD \$277 \$279 VDD sky130_fd_pr__pfet_01v8_lvt L=350000 W=19000000
+ AS=4.275e+12 AD=4.275e+12 PS=30300000 PD=30300000
M$81 VDD \$279 \$281 VDD sky130_fd_pr__pfet_01v8_lvt L=350000 W=19000000
+ AS=4.275e+12 AD=4.275e+12 PS=30300000 PD=30300000
M$85 VDD \$281 \$283 VDD sky130_fd_pr__pfet_01v8_lvt L=350000 W=19000000
+ AS=4.275e+12 AD=4.275e+12 PS=30300000 PD=30300000
M$89 VDD \$283 \$285 VDD sky130_fd_pr__pfet_01v8_lvt L=350000 W=19000000
+ AS=4.275e+12 AD=4.275e+12 PS=30300000 PD=30300000
M$93 VDD \$285 \$287 VDD sky130_fd_pr__pfet_01v8_lvt L=350000 W=19000000
+ AS=4.275e+12 AD=4.275e+12 PS=30300000 PD=30300000
M$97 VDD \$287 \$289 VDD sky130_fd_pr__pfet_01v8_lvt L=350000 W=19000000
+ AS=4.275e+12 AD=4.275e+12 PS=30300000 PD=30300000
M$101 VDD \$289 \$291 VDD sky130_fd_pr__pfet_01v8_lvt L=350000 W=19000000
+ AS=4.275e+12 AD=4.275e+12 PS=30300000 PD=30300000
M$105 VDD \$291 \$293 VDD sky130_fd_pr__pfet_01v8_lvt L=350000 W=19000000
+ AS=4.275e+12 AD=4.275e+12 PS=30300000 PD=30300000
M$109 VDD \$293 \$295 VDD sky130_fd_pr__pfet_01v8_lvt L=350000 W=19000000
+ AS=4.275e+12 AD=4.275e+12 PS=30300000 PD=30300000
M$113 VDD \$295 \$297 VDD sky130_fd_pr__pfet_01v8_lvt L=350000 W=19000000
+ AS=4.275e+12 AD=4.275e+12 PS=30300000 PD=30300000
M$117 VDD \$297 \$299 VDD sky130_fd_pr__pfet_01v8_lvt L=350000 W=19000000
+ AS=4.275e+12 AD=4.275e+12 PS=30300000 PD=30300000
M$121 VDD \$299 \$301 VDD sky130_fd_pr__pfet_01v8_lvt L=350000 W=19000000
+ AS=4.275e+12 AD=4.275e+12 PS=30300000 PD=30300000
M$125 VDD \$301 \$303 VDD sky130_fd_pr__pfet_01v8_lvt L=350000 W=19000000
+ AS=4.275e+12 AD=4.275e+12 PS=30300000 PD=30300000
M$129 VDD \$303 \$305 VDD sky130_fd_pr__pfet_01v8_lvt L=350000 W=19000000
+ AS=4.275e+12 AD=4.275e+12 PS=30300000 PD=30300000
M$133 VDD \$305 \$307 VDD sky130_fd_pr__pfet_01v8_lvt L=350000 W=19000000
+ AS=4.275e+12 AD=4.275e+12 PS=30300000 PD=30300000
M$137 VDD \$307 \$309 VDD sky130_fd_pr__pfet_01v8_lvt L=350000 W=19000000
+ AS=4.275e+12 AD=4.275e+12 PS=30300000 PD=30300000
M$141 VDD \$309 \$311 VDD sky130_fd_pr__pfet_01v8_lvt L=350000 W=19000000
+ AS=4.275e+12 AD=4.275e+12 PS=30300000 PD=30300000
M$145 VDD \$311 \$313 VDD sky130_fd_pr__pfet_01v8_lvt L=350000 W=19000000
+ AS=4.275e+12 AD=4.275e+12 PS=30300000 PD=30300000
M$149 VDD \$313 \$315 VDD sky130_fd_pr__pfet_01v8_lvt L=350000 W=19000000
+ AS=4.275e+12 AD=4.275e+12 PS=30300000 PD=30300000
M$153 VDD \$315 \$317 VDD sky130_fd_pr__pfet_01v8_lvt L=350000 W=19000000
+ AS=4.275e+12 AD=4.275e+12 PS=30300000 PD=30300000
M$157 VDD \$317 \$319 VDD sky130_fd_pr__pfet_01v8_lvt L=350000 W=19000000
+ AS=4.275e+12 AD=4.275e+12 PS=30300000 PD=30300000
M$161 VDD \$319 \$321 VDD sky130_fd_pr__pfet_01v8_lvt L=350000 W=19000000
+ AS=4.275e+12 AD=4.275e+12 PS=30300000 PD=30300000
M$165 VDD \$321 \$323 VDD sky130_fd_pr__pfet_01v8_lvt L=350000 W=19000000
+ AS=4.275e+12 AD=4.275e+12 PS=30300000 PD=30300000
M$169 VDD \$323 \$325 VDD sky130_fd_pr__pfet_01v8_lvt L=350000 W=19000000
+ AS=4.275e+12 AD=4.275e+12 PS=30300000 PD=30300000
M$173 VDD \$325 \$327 VDD sky130_fd_pr__pfet_01v8_lvt L=350000 W=19000000
+ AS=4.275e+12 AD=4.275e+12 PS=30300000 PD=30300000
M$177 \$821 \$327 \$189 VDD sky130_fd_pr__pfet_01v8_lvt L=350000 W=19000000
+ AS=4.275e+12 AD=4.275e+12 PS=30300000 PD=30300000
M$181 VDD RON \$821 VDD sky130_fd_pr__pfet_01v8_lvt L=350000 W=190000000
+ AS=2.92125e+13 AD=2.92125e+13 PS=207050000 PD=207050000
M$221 \$822 \$189 \$194 VDD sky130_fd_pr__pfet_01v8_lvt L=350000 W=19000000
+ AS=4.275e+12 AD=4.275e+12 PS=30300000 PD=30300000
M$225 VDD DUT_Footer \$822 VDD sky130_fd_pr__pfet_01v8_lvt L=350000 W=190000000
+ AS=2.92125e+13 AD=2.92125e+13 PS=207050000 PD=207050000
M$265 \$194 RO Drain_Sense VDD sky130_fd_pr__pfet_01v8_lvt L=350000 W=19000000
+ AS=4.275e+12 AD=4.275e+12 PS=30300000 PD=30300000
M$269 \$194 RO Drain\x20Force VDD sky130_fd_pr__pfet_01v8_lvt L=350000
+ W=19000000 AS=4.275e+12 AD=4.275e+12 PS=30300000 PD=30300000
M$273 \$823 \$194 \$195 VDD sky130_fd_pr__pfet_01v8_lvt L=350000 W=19000000
+ AS=4.275e+12 AD=4.275e+12 PS=30300000 PD=30300000
M$277 VDD RON \$823 VDD sky130_fd_pr__pfet_01v8_lvt L=350000 W=190000000
+ AS=2.92125e+13 AD=2.92125e+13 PS=207050000 PD=207050000
M$317 VDD \$1948 OUT VDD sky130_fd_pr__pfet_01v8_lvt L=350000 W=19000000
+ AS=4.275e+12 AD=4.275e+12 PS=30300000 PD=30300000
M$321 VDD \$1950 \$1948 VDD sky130_fd_pr__pfet_01v8_lvt L=350000 W=19000000
+ AS=4.275e+12 AD=4.275e+12 PS=30300000 PD=30300000
M$325 VDD \$1952 \$1950 VDD sky130_fd_pr__pfet_01v8_lvt L=350000 W=19000000
+ AS=4.275e+12 AD=4.275e+12 PS=30300000 PD=30300000
M$329 VDD \$1954 \$1952 VDD sky130_fd_pr__pfet_01v8_lvt L=350000 W=19000000
+ AS=4.275e+12 AD=4.275e+12 PS=30300000 PD=30300000
M$333 VDD \$1956 \$1954 VDD sky130_fd_pr__pfet_01v8_lvt L=350000 W=19000000
+ AS=4.275e+12 AD=4.275e+12 PS=30300000 PD=30300000
M$337 VDD \$1958 \$1956 VDD sky130_fd_pr__pfet_01v8_lvt L=350000 W=19000000
+ AS=4.275e+12 AD=4.275e+12 PS=30300000 PD=30300000
M$341 VDD \$1960 \$1958 VDD sky130_fd_pr__pfet_01v8_lvt L=350000 W=19000000
+ AS=4.275e+12 AD=4.275e+12 PS=30300000 PD=30300000
M$345 VDD \$1962 \$1960 VDD sky130_fd_pr__pfet_01v8_lvt L=350000 W=19000000
+ AS=4.275e+12 AD=4.275e+12 PS=30300000 PD=30300000
M$349 VDD \$1964 \$1962 VDD sky130_fd_pr__pfet_01v8_lvt L=350000 W=19000000
+ AS=4.275e+12 AD=4.275e+12 PS=30300000 PD=30300000
M$353 VDD \$1966 \$1964 VDD sky130_fd_pr__pfet_01v8_lvt L=350000 W=19000000
+ AS=4.275e+12 AD=4.275e+12 PS=30300000 PD=30300000
M$357 VDD \$1968 \$1966 VDD sky130_fd_pr__pfet_01v8_lvt L=350000 W=19000000
+ AS=4.275e+12 AD=4.275e+12 PS=30300000 PD=30300000
M$361 VDD \$1970 \$1968 VDD sky130_fd_pr__pfet_01v8_lvt L=350000 W=19000000
+ AS=4.275e+12 AD=4.275e+12 PS=30300000 PD=30300000
M$365 VDD \$1972 \$1970 VDD sky130_fd_pr__pfet_01v8_lvt L=350000 W=19000000
+ AS=4.275e+12 AD=4.275e+12 PS=30300000 PD=30300000
M$369 VDD \$1974 \$1972 VDD sky130_fd_pr__pfet_01v8_lvt L=350000 W=19000000
+ AS=4.275e+12 AD=4.275e+12 PS=30300000 PD=30300000
M$373 VDD \$1976 \$1974 VDD sky130_fd_pr__pfet_01v8_lvt L=350000 W=19000000
+ AS=4.275e+12 AD=4.275e+12 PS=30300000 PD=30300000
M$377 VDD \$1978 \$1976 VDD sky130_fd_pr__pfet_01v8_lvt L=350000 W=19000000
+ AS=4.275e+12 AD=4.275e+12 PS=30300000 PD=30300000
M$381 VDD \$1980 \$1978 VDD sky130_fd_pr__pfet_01v8_lvt L=350000 W=19000000
+ AS=4.275e+12 AD=4.275e+12 PS=30300000 PD=30300000
M$385 VDD \$1982 \$1980 VDD sky130_fd_pr__pfet_01v8_lvt L=350000 W=19000000
+ AS=4.275e+12 AD=4.275e+12 PS=30300000 PD=30300000
M$389 VDD \$1984 \$1982 VDD sky130_fd_pr__pfet_01v8_lvt L=350000 W=19000000
+ AS=4.275e+12 AD=4.275e+12 PS=30300000 PD=30300000
M$393 VDD \$1986 \$1984 VDD sky130_fd_pr__pfet_01v8_lvt L=350000 W=19000000
+ AS=4.275e+12 AD=4.275e+12 PS=30300000 PD=30300000
M$397 VDD \$1988 \$1986 VDD sky130_fd_pr__pfet_01v8_lvt L=350000 W=19000000
+ AS=4.275e+12 AD=4.275e+12 PS=30300000 PD=30300000
M$401 VDD \$1990 \$1988 VDD sky130_fd_pr__pfet_01v8_lvt L=350000 W=19000000
+ AS=4.275e+12 AD=4.275e+12 PS=30300000 PD=30300000
M$405 VDD \$1992 \$1990 VDD sky130_fd_pr__pfet_01v8_lvt L=350000 W=19000000
+ AS=4.275e+12 AD=4.275e+12 PS=30300000 PD=30300000
M$409 VDD \$1994 \$1992 VDD sky130_fd_pr__pfet_01v8_lvt L=350000 W=19000000
+ AS=4.275e+12 AD=4.275e+12 PS=30300000 PD=30300000
M$413 VDD \$1996 \$1994 VDD sky130_fd_pr__pfet_01v8_lvt L=350000 W=19000000
+ AS=4.275e+12 AD=4.275e+12 PS=30300000 PD=30300000
M$417 VDD \$1998 \$1996 VDD sky130_fd_pr__pfet_01v8_lvt L=350000 W=19000000
+ AS=4.275e+12 AD=4.275e+12 PS=30300000 PD=30300000
M$421 VDD \$2000 \$1998 VDD sky130_fd_pr__pfet_01v8_lvt L=350000 W=19000000
+ AS=4.275e+12 AD=4.275e+12 PS=30300000 PD=30300000
M$425 VDD \$2002 \$2000 VDD sky130_fd_pr__pfet_01v8_lvt L=350000 W=19000000
+ AS=4.275e+12 AD=4.275e+12 PS=30300000 PD=30300000
M$429 VDD \$2004 \$2002 VDD sky130_fd_pr__pfet_01v8_lvt L=350000 W=19000000
+ AS=4.275e+12 AD=4.275e+12 PS=30300000 PD=30300000
M$433 VDD \$2006 \$2004 VDD sky130_fd_pr__pfet_01v8_lvt L=350000 W=19000000
+ AS=4.275e+12 AD=4.275e+12 PS=30300000 PD=30300000
M$437 VDD \$2008 \$2006 VDD sky130_fd_pr__pfet_01v8_lvt L=350000 W=19000000
+ AS=4.275e+12 AD=4.275e+12 PS=30300000 PD=30300000
M$441 VDD \$2010 \$2008 VDD sky130_fd_pr__pfet_01v8_lvt L=350000 W=19000000
+ AS=4.275e+12 AD=4.275e+12 PS=30300000 PD=30300000
M$445 VDD \$2012 \$2010 VDD sky130_fd_pr__pfet_01v8_lvt L=350000 W=19000000
+ AS=4.275e+12 AD=4.275e+12 PS=30300000 PD=30300000
M$449 VDD \$2014 \$2012 VDD sky130_fd_pr__pfet_01v8_lvt L=350000 W=19000000
+ AS=4.275e+12 AD=4.275e+12 PS=30300000 PD=30300000
M$453 VDD \$2016 \$2014 VDD sky130_fd_pr__pfet_01v8_lvt L=350000 W=19000000
+ AS=4.275e+12 AD=4.275e+12 PS=30300000 PD=30300000
M$457 VDD \$2018 \$2016 VDD sky130_fd_pr__pfet_01v8_lvt L=350000 W=19000000
+ AS=4.275e+12 AD=4.275e+12 PS=30300000 PD=30300000
M$461 VDD \$2020 \$2018 VDD sky130_fd_pr__pfet_01v8_lvt L=350000 W=19000000
+ AS=4.275e+12 AD=4.275e+12 PS=30300000 PD=30300000
M$465 VDD \$2022 \$2020 VDD sky130_fd_pr__pfet_01v8_lvt L=350000 W=19000000
+ AS=4.275e+12 AD=4.275e+12 PS=30300000 PD=30300000
M$469 VDD \$2024 \$2022 VDD sky130_fd_pr__pfet_01v8_lvt L=350000 W=19000000
+ AS=4.275e+12 AD=4.275e+12 PS=30300000 PD=30300000
M$473 VDD \$2026 \$2024 VDD sky130_fd_pr__pfet_01v8_lvt L=350000 W=19000000
+ AS=4.275e+12 AD=4.275e+12 PS=30300000 PD=30300000
M$477 VDD \$2028 \$2026 VDD sky130_fd_pr__pfet_01v8_lvt L=350000 W=19000000
+ AS=4.275e+12 AD=4.275e+12 PS=30300000 PD=30300000
M$481 VDD \$2030 \$2028 VDD sky130_fd_pr__pfet_01v8_lvt L=350000 W=19000000
+ AS=4.275e+12 AD=4.275e+12 PS=30300000 PD=30300000
M$485 VDD \$2032 \$2030 VDD sky130_fd_pr__pfet_01v8_lvt L=350000 W=19000000
+ AS=4.275e+12 AD=4.275e+12 PS=30300000 PD=30300000
M$489 VDD \$1918 \$2032 VDD sky130_fd_pr__pfet_01v8_lvt L=350000 W=19000000
+ AS=4.275e+12 AD=4.275e+12 PS=30300000 PD=30300000
M$493 \$1916 VDD \$1918 VDD sky130_fd_pr__pfet_01v8_lvt L=350000 W=450000
+ AS=135000000000 AD=135000000000 PS=1500000 PD=1500000
M$494 \$1917 VDD \$1918 VDD sky130_fd_pr__pfet_01v8_lvt L=350000 W=450000
+ AS=135000000000 AD=135000000000 PS=1500000 PD=1500000
M$495 VDD \$1921 \$1918 VDD sky130_fd_pr__pfet_01v8_lvt L=350000 W=19000000
+ AS=4.275e+12 AD=4.275e+12 PS=30300000 PD=30300000
M$499 \$1919 VDD \$1921 VDD sky130_fd_pr__pfet_01v8_lvt L=350000 W=450000
+ AS=135000000000 AD=135000000000 PS=1500000 PD=1500000
M$500 \$1920 VDD \$1921 VDD sky130_fd_pr__pfet_01v8_lvt L=350000 W=450000
+ AS=135000000000 AD=135000000000 PS=1500000 PD=1500000
M$501 VDD \$1924 \$1921 VDD sky130_fd_pr__pfet_01v8_lvt L=350000 W=19000000
+ AS=4.275e+12 AD=4.275e+12 PS=30300000 PD=30300000
M$505 \$1922 VDD \$1924 VDD sky130_fd_pr__pfet_01v8_lvt L=350000 W=450000
+ AS=135000000000 AD=135000000000 PS=1500000 PD=1500000
M$506 \$1923 VDD \$1924 VDD sky130_fd_pr__pfet_01v8_lvt L=350000 W=450000
+ AS=135000000000 AD=135000000000 PS=1500000 PD=1500000
M$507 VDD \$1927 \$1924 VDD sky130_fd_pr__pfet_01v8_lvt L=350000 W=19000000
+ AS=4.275e+12 AD=4.275e+12 PS=30300000 PD=30300000
M$511 \$189 RO DUT_Gate VDD sky130_fd_pr__pfet_01v8_lvt L=350000 W=450000
+ AS=135000000000 AD=135000000000 PS=1500000 PD=1500000
M$512 \$1925 VDD \$1927 VDD sky130_fd_pr__pfet_01v8_lvt L=350000 W=450000
+ AS=135000000000 AD=135000000000 PS=1500000 PD=1500000
M$513 \$189 RO \$193 VDD sky130_fd_pr__pfet_01v8_lvt L=350000 W=450000
+ AS=135000000000 AD=135000000000 PS=1500000 PD=1500000
M$514 \$1926 VDD \$1927 VDD sky130_fd_pr__pfet_01v8_lvt L=350000 W=450000
+ AS=135000000000 AD=135000000000 PS=1500000 PD=1500000
M$515 VDD \$1930 \$1927 VDD sky130_fd_pr__pfet_01v8_lvt L=350000 W=19000000
+ AS=4.275e+12 AD=4.275e+12 PS=30300000 PD=30300000
M$519 \$1928 VDD \$1930 VDD sky130_fd_pr__pfet_01v8_lvt L=350000 W=450000
+ AS=135000000000 AD=135000000000 PS=1500000 PD=1500000
M$520 \$1929 VDD \$1930 VDD sky130_fd_pr__pfet_01v8_lvt L=350000 W=450000
+ AS=135000000000 AD=135000000000 PS=1500000 PD=1500000
M$521 VDD \$1933 \$1930 VDD sky130_fd_pr__pfet_01v8_lvt L=350000 W=19000000
+ AS=4.275e+12 AD=4.275e+12 PS=30300000 PD=30300000
M$525 \$1931 VDD \$1933 VDD sky130_fd_pr__pfet_01v8_lvt L=350000 W=450000
+ AS=135000000000 AD=135000000000 PS=1500000 PD=1500000
M$526 \$1932 VDD \$1933 VDD sky130_fd_pr__pfet_01v8_lvt L=350000 W=450000
+ AS=135000000000 AD=135000000000 PS=1500000 PD=1500000
M$527 VDD \$1936 \$1933 VDD sky130_fd_pr__pfet_01v8_lvt L=350000 W=19000000
+ AS=4.275e+12 AD=4.275e+12 PS=30300000 PD=30300000
M$531 \$1934 VDD \$1936 VDD sky130_fd_pr__pfet_01v8_lvt L=350000 W=450000
+ AS=135000000000 AD=135000000000 PS=1500000 PD=1500000
M$532 \$1935 VDD \$1936 VDD sky130_fd_pr__pfet_01v8_lvt L=350000 W=450000
+ AS=135000000000 AD=135000000000 PS=1500000 PD=1500000
M$533 VDD \$1939 \$1936 VDD sky130_fd_pr__pfet_01v8_lvt L=350000 W=19000000
+ AS=4.275e+12 AD=4.275e+12 PS=30300000 PD=30300000
M$537 \$1937 VDD \$1939 VDD sky130_fd_pr__pfet_01v8_lvt L=350000 W=450000
+ AS=135000000000 AD=135000000000 PS=1500000 PD=1500000
M$538 \$1938 VDD \$1939 VDD sky130_fd_pr__pfet_01v8_lvt L=350000 W=450000
+ AS=135000000000 AD=135000000000 PS=1500000 PD=1500000
M$539 VDD \$1942 \$1939 VDD sky130_fd_pr__pfet_01v8_lvt L=350000 W=19000000
+ AS=4.275e+12 AD=4.275e+12 PS=30300000 PD=30300000
M$543 \$1940 VDD \$1942 VDD sky130_fd_pr__pfet_01v8_lvt L=350000 W=450000
+ AS=135000000000 AD=135000000000 PS=1500000 PD=1500000
M$544 \$1941 VDD \$1942 VDD sky130_fd_pr__pfet_01v8_lvt L=350000 W=450000
+ AS=135000000000 AD=135000000000 PS=1500000 PD=1500000
M$545 VDD Out \$1942 VDD sky130_fd_pr__pfet_01v8_lvt L=350000 W=19000000
+ AS=4.275e+12 AD=4.275e+12 PS=30300000 PD=30300000
M$549 \$1943 VDD Out VDD sky130_fd_pr__pfet_01v8_lvt L=350000 W=450000
+ AS=135000000000 AD=135000000000 PS=1500000 PD=1500000
M$550 \$1944 VDD Out VDD sky130_fd_pr__pfet_01v8_lvt L=350000 W=450000
+ AS=135000000000 AD=135000000000 PS=1500000 PD=1500000
M$551 VDD \$195 Out VDD sky130_fd_pr__pfet_01v8_lvt L=350000 W=19000000
+ AS=4.275e+12 AD=4.275e+12 PS=30300000 PD=30300000
M$555 \$195 VDD GND VDD sky130_fd_pr__pfet_01v8_lvt L=350000 W=450000
+ AS=135000000000 AD=135000000000 PS=1500000 PD=1500000
M$556 \$195 VDD \$196 VDD sky130_fd_pr__pfet_01v8_lvt L=350000 W=450000
+ AS=135000000000 AD=135000000000 PS=1500000 PD=1500000
M$557 \$189 \$327 \$192 GND sky130_fd_pr__nfet_01v8_lvt L=350000 W=4200000
+ AS=1.26e+12 AD=1.26e+12 PS=9600000 PD=9600000
M$559 \$192 RO GND GND sky130_fd_pr__nfet_01v8_lvt L=350000 W=42000000
+ AS=1.26e+13 AD=1.26e+13 PS=96000000 PD=96000000
M$579 \$194 \$189 \$191 GND sky130_fd_pr__nfet_01v8_lvt L=350000 W=4200000
+ AS=1.26e+12 AD=1.26e+12 PS=9600000 PD=9600000
M$581 \$191 DUT_Header GND GND sky130_fd_pr__nfet_01v8_lvt L=350000 W=42000000
+ AS=1.26e+13 AD=1.26e+13 PS=96000000 PD=96000000
M$601 \$194 RON Drain_Sense GND sky130_fd_pr__nfet_01v8_lvt L=350000 W=4200000
+ AS=1.26e+12 AD=1.26e+12 PS=9600000 PD=9600000
M$603 \$194 RON Drain\x20Force GND sky130_fd_pr__nfet_01v8_lvt L=350000
+ W=4200000 AS=1.26e+12 AD=1.26e+12 PS=9600000 PD=9600000
M$605 \$195 \$194 GND GND sky130_fd_pr__nfet_01v8_lvt L=350000 W=4200000
+ AS=1.26e+12 AD=1.26e+12 PS=9600000 PD=9600000
M$607 \$1916 GND \$1918 GND sky130_fd_pr__nfet_01v8_lvt L=350000 W=450000
+ AS=135000000000 AD=135000000000 PS=1500000 PD=1500000
M$608 \$1917 GND \$1918 GND sky130_fd_pr__nfet_01v8_lvt L=350000 W=450000
+ AS=135000000000 AD=135000000000 PS=1500000 PD=1500000
M$609 \$1918 \$1921 GND GND sky130_fd_pr__nfet_01v8_lvt L=350000 W=4200000
+ AS=1.26e+12 AD=1.26e+12 PS=9600000 PD=9600000
M$611 \$1919 GND \$1921 GND sky130_fd_pr__nfet_01v8_lvt L=350000 W=450000
+ AS=135000000000 AD=135000000000 PS=1500000 PD=1500000
M$612 \$1920 GND \$1921 GND sky130_fd_pr__nfet_01v8_lvt L=350000 W=450000
+ AS=135000000000 AD=135000000000 PS=1500000 PD=1500000
M$613 \$1921 \$1924 GND GND sky130_fd_pr__nfet_01v8_lvt L=350000 W=4200000
+ AS=1.26e+12 AD=1.26e+12 PS=9600000 PD=9600000
M$615 \$1922 GND \$1924 GND sky130_fd_pr__nfet_01v8_lvt L=350000 W=450000
+ AS=135000000000 AD=135000000000 PS=1500000 PD=1500000
M$616 \$1923 GND \$1924 GND sky130_fd_pr__nfet_01v8_lvt L=350000 W=450000
+ AS=135000000000 AD=135000000000 PS=1500000 PD=1500000
M$617 \$1924 \$1927 GND GND sky130_fd_pr__nfet_01v8_lvt L=350000 W=4200000
+ AS=1.26e+12 AD=1.26e+12 PS=9600000 PD=9600000
M$619 \$189 RON DUT_Gate GND sky130_fd_pr__nfet_01v8_lvt L=350000 W=450000
+ AS=135000000000 AD=135000000000 PS=1500000 PD=1500000
M$620 \$1925 GND \$1927 GND sky130_fd_pr__nfet_01v8_lvt L=350000 W=450000
+ AS=135000000000 AD=135000000000 PS=1500000 PD=1500000
M$621 \$189 RON \$193 GND sky130_fd_pr__nfet_01v8_lvt L=350000 W=450000
+ AS=135000000000 AD=135000000000 PS=1500000 PD=1500000
M$622 \$1926 GND \$1927 GND sky130_fd_pr__nfet_01v8_lvt L=350000 W=450000
+ AS=135000000000 AD=135000000000 PS=1500000 PD=1500000
M$623 \$1927 \$1930 GND GND sky130_fd_pr__nfet_01v8_lvt L=350000 W=4200000
+ AS=1.26e+12 AD=1.26e+12 PS=9600000 PD=9600000
M$625 \$1928 GND \$1930 GND sky130_fd_pr__nfet_01v8_lvt L=350000 W=450000
+ AS=135000000000 AD=135000000000 PS=1500000 PD=1500000
M$626 \$1929 GND \$1930 GND sky130_fd_pr__nfet_01v8_lvt L=350000 W=450000
+ AS=135000000000 AD=135000000000 PS=1500000 PD=1500000
M$627 \$1930 \$1933 GND GND sky130_fd_pr__nfet_01v8_lvt L=350000 W=4200000
+ AS=1.26e+12 AD=1.26e+12 PS=9600000 PD=9600000
M$629 \$1931 GND \$1933 GND sky130_fd_pr__nfet_01v8_lvt L=350000 W=450000
+ AS=135000000000 AD=135000000000 PS=1500000 PD=1500000
M$630 \$1932 GND \$1933 GND sky130_fd_pr__nfet_01v8_lvt L=350000 W=450000
+ AS=135000000000 AD=135000000000 PS=1500000 PD=1500000
M$631 \$1933 \$1936 GND GND sky130_fd_pr__nfet_01v8_lvt L=350000 W=4200000
+ AS=1.26e+12 AD=1.26e+12 PS=9600000 PD=9600000
M$633 \$1934 GND \$1936 GND sky130_fd_pr__nfet_01v8_lvt L=350000 W=450000
+ AS=135000000000 AD=135000000000 PS=1500000 PD=1500000
M$634 \$1935 GND \$1936 GND sky130_fd_pr__nfet_01v8_lvt L=350000 W=450000
+ AS=135000000000 AD=135000000000 PS=1500000 PD=1500000
M$635 \$1936 \$1939 GND GND sky130_fd_pr__nfet_01v8_lvt L=350000 W=4200000
+ AS=1.26e+12 AD=1.26e+12 PS=9600000 PD=9600000
M$637 \$1937 GND \$1939 GND sky130_fd_pr__nfet_01v8_lvt L=350000 W=450000
+ AS=135000000000 AD=135000000000 PS=1500000 PD=1500000
M$638 \$1938 GND \$1939 GND sky130_fd_pr__nfet_01v8_lvt L=350000 W=450000
+ AS=135000000000 AD=135000000000 PS=1500000 PD=1500000
M$639 \$1939 \$1942 GND GND sky130_fd_pr__nfet_01v8_lvt L=350000 W=4200000
+ AS=1.26e+12 AD=1.26e+12 PS=9600000 PD=9600000
M$641 \$1940 GND \$1942 GND sky130_fd_pr__nfet_01v8_lvt L=350000 W=450000
+ AS=135000000000 AD=135000000000 PS=1500000 PD=1500000
M$642 \$1941 GND \$1942 GND sky130_fd_pr__nfet_01v8_lvt L=350000 W=450000
+ AS=135000000000 AD=135000000000 PS=1500000 PD=1500000
M$643 \$1942 Out GND GND sky130_fd_pr__nfet_01v8_lvt L=350000 W=4200000
+ AS=1.26e+12 AD=1.26e+12 PS=9600000 PD=9600000
M$645 \$1943 GND Out GND sky130_fd_pr__nfet_01v8_lvt L=350000 W=450000
+ AS=135000000000 AD=135000000000 PS=1500000 PD=1500000
M$646 \$1944 GND Out GND sky130_fd_pr__nfet_01v8_lvt L=350000 W=450000
+ AS=135000000000 AD=135000000000 PS=1500000 PD=1500000
M$647 Out \$195 GND GND sky130_fd_pr__nfet_01v8_lvt L=350000 W=4200000
+ AS=1.26e+12 AD=1.26e+12 PS=9600000 PD=9600000
M$649 \$195 RON GND GND sky130_fd_pr__nfet_01v8_lvt L=350000 W=450000
+ AS=135000000000 AD=135000000000 PS=1500000 PD=1500000
M$650 \$195 RON \$196 GND sky130_fd_pr__nfet_01v8_lvt L=350000 W=450000
+ AS=135000000000 AD=135000000000 PS=1500000 PD=1500000
M$651 \$241 OUT GND GND sky130_fd_pr__nfet_01v8_lvt L=350000 W=4200000
+ AS=1.26e+12 AD=1.26e+12 PS=9600000 PD=9600000
M$653 OUT \$1948 GND GND sky130_fd_pr__nfet_01v8_lvt L=350000 W=4200000
+ AS=1.26e+12 AD=1.26e+12 PS=9600000 PD=9600000
M$655 \$243 \$241 GND GND sky130_fd_pr__nfet_01v8_lvt L=350000 W=4200000
+ AS=1.26e+12 AD=1.26e+12 PS=9600000 PD=9600000
M$657 \$1948 \$1950 GND GND sky130_fd_pr__nfet_01v8_lvt L=350000 W=4200000
+ AS=1.26e+12 AD=1.26e+12 PS=9600000 PD=9600000
M$659 \$245 \$243 GND GND sky130_fd_pr__nfet_01v8_lvt L=350000 W=4200000
+ AS=1.26e+12 AD=1.26e+12 PS=9600000 PD=9600000
M$661 \$1950 \$1952 GND GND sky130_fd_pr__nfet_01v8_lvt L=350000 W=4200000
+ AS=1.26e+12 AD=1.26e+12 PS=9600000 PD=9600000
M$663 \$247 \$245 GND GND sky130_fd_pr__nfet_01v8_lvt L=350000 W=4200000
+ AS=1.26e+12 AD=1.26e+12 PS=9600000 PD=9600000
M$665 \$1952 \$1954 GND GND sky130_fd_pr__nfet_01v8_lvt L=350000 W=4200000
+ AS=1.26e+12 AD=1.26e+12 PS=9600000 PD=9600000
M$667 \$249 \$247 GND GND sky130_fd_pr__nfet_01v8_lvt L=350000 W=4200000
+ AS=1.26e+12 AD=1.26e+12 PS=9600000 PD=9600000
M$669 \$1954 \$1956 GND GND sky130_fd_pr__nfet_01v8_lvt L=350000 W=4200000
+ AS=1.26e+12 AD=1.26e+12 PS=9600000 PD=9600000
M$671 \$251 \$249 GND GND sky130_fd_pr__nfet_01v8_lvt L=350000 W=4200000
+ AS=1.26e+12 AD=1.26e+12 PS=9600000 PD=9600000
M$673 \$1956 \$1958 GND GND sky130_fd_pr__nfet_01v8_lvt L=350000 W=4200000
+ AS=1.26e+12 AD=1.26e+12 PS=9600000 PD=9600000
M$675 \$253 \$251 GND GND sky130_fd_pr__nfet_01v8_lvt L=350000 W=4200000
+ AS=1.26e+12 AD=1.26e+12 PS=9600000 PD=9600000
M$677 \$1958 \$1960 GND GND sky130_fd_pr__nfet_01v8_lvt L=350000 W=4200000
+ AS=1.26e+12 AD=1.26e+12 PS=9600000 PD=9600000
M$679 \$255 \$253 GND GND sky130_fd_pr__nfet_01v8_lvt L=350000 W=4200000
+ AS=1.26e+12 AD=1.26e+12 PS=9600000 PD=9600000
M$681 \$1960 \$1962 GND GND sky130_fd_pr__nfet_01v8_lvt L=350000 W=4200000
+ AS=1.26e+12 AD=1.26e+12 PS=9600000 PD=9600000
M$683 \$257 \$255 GND GND sky130_fd_pr__nfet_01v8_lvt L=350000 W=4200000
+ AS=1.26e+12 AD=1.26e+12 PS=9600000 PD=9600000
M$685 \$1962 \$1964 GND GND sky130_fd_pr__nfet_01v8_lvt L=350000 W=4200000
+ AS=1.26e+12 AD=1.26e+12 PS=9600000 PD=9600000
M$687 \$259 \$257 GND GND sky130_fd_pr__nfet_01v8_lvt L=350000 W=4200000
+ AS=1.26e+12 AD=1.26e+12 PS=9600000 PD=9600000
M$689 \$1964 \$1966 GND GND sky130_fd_pr__nfet_01v8_lvt L=350000 W=4200000
+ AS=1.26e+12 AD=1.26e+12 PS=9600000 PD=9600000
M$691 \$261 \$259 GND GND sky130_fd_pr__nfet_01v8_lvt L=350000 W=4200000
+ AS=1.26e+12 AD=1.26e+12 PS=9600000 PD=9600000
M$693 \$1966 \$1968 GND GND sky130_fd_pr__nfet_01v8_lvt L=350000 W=4200000
+ AS=1.26e+12 AD=1.26e+12 PS=9600000 PD=9600000
M$695 \$263 \$261 GND GND sky130_fd_pr__nfet_01v8_lvt L=350000 W=4200000
+ AS=1.26e+12 AD=1.26e+12 PS=9600000 PD=9600000
M$697 \$1968 \$1970 GND GND sky130_fd_pr__nfet_01v8_lvt L=350000 W=4200000
+ AS=1.26e+12 AD=1.26e+12 PS=9600000 PD=9600000
M$699 \$265 \$263 GND GND sky130_fd_pr__nfet_01v8_lvt L=350000 W=4200000
+ AS=1.26e+12 AD=1.26e+12 PS=9600000 PD=9600000
M$701 \$1970 \$1972 GND GND sky130_fd_pr__nfet_01v8_lvt L=350000 W=4200000
+ AS=1.26e+12 AD=1.26e+12 PS=9600000 PD=9600000
M$703 \$267 \$265 GND GND sky130_fd_pr__nfet_01v8_lvt L=350000 W=4200000
+ AS=1.26e+12 AD=1.26e+12 PS=9600000 PD=9600000
M$705 \$1972 \$1974 GND GND sky130_fd_pr__nfet_01v8_lvt L=350000 W=4200000
+ AS=1.26e+12 AD=1.26e+12 PS=9600000 PD=9600000
M$707 \$269 \$267 GND GND sky130_fd_pr__nfet_01v8_lvt L=350000 W=4200000
+ AS=1.26e+12 AD=1.26e+12 PS=9600000 PD=9600000
M$709 \$1974 \$1976 GND GND sky130_fd_pr__nfet_01v8_lvt L=350000 W=4200000
+ AS=1.26e+12 AD=1.26e+12 PS=9600000 PD=9600000
M$711 \$271 \$269 GND GND sky130_fd_pr__nfet_01v8_lvt L=350000 W=4200000
+ AS=1.26e+12 AD=1.26e+12 PS=9600000 PD=9600000
M$713 \$1976 \$1978 GND GND sky130_fd_pr__nfet_01v8_lvt L=350000 W=4200000
+ AS=1.26e+12 AD=1.26e+12 PS=9600000 PD=9600000
M$715 \$273 \$271 GND GND sky130_fd_pr__nfet_01v8_lvt L=350000 W=4200000
+ AS=1.26e+12 AD=1.26e+12 PS=9600000 PD=9600000
M$717 \$1978 \$1980 GND GND sky130_fd_pr__nfet_01v8_lvt L=350000 W=4200000
+ AS=1.26e+12 AD=1.26e+12 PS=9600000 PD=9600000
M$719 \$275 \$273 GND GND sky130_fd_pr__nfet_01v8_lvt L=350000 W=4200000
+ AS=1.26e+12 AD=1.26e+12 PS=9600000 PD=9600000
M$721 \$1980 \$1982 GND GND sky130_fd_pr__nfet_01v8_lvt L=350000 W=4200000
+ AS=1.26e+12 AD=1.26e+12 PS=9600000 PD=9600000
M$723 \$277 \$275 GND GND sky130_fd_pr__nfet_01v8_lvt L=350000 W=4200000
+ AS=1.26e+12 AD=1.26e+12 PS=9600000 PD=9600000
M$725 \$1982 \$1984 GND GND sky130_fd_pr__nfet_01v8_lvt L=350000 W=4200000
+ AS=1.26e+12 AD=1.26e+12 PS=9600000 PD=9600000
M$727 \$279 \$277 GND GND sky130_fd_pr__nfet_01v8_lvt L=350000 W=4200000
+ AS=1.26e+12 AD=1.26e+12 PS=9600000 PD=9600000
M$729 \$1984 \$1986 GND GND sky130_fd_pr__nfet_01v8_lvt L=350000 W=4200000
+ AS=1.26e+12 AD=1.26e+12 PS=9600000 PD=9600000
M$731 \$281 \$279 GND GND sky130_fd_pr__nfet_01v8_lvt L=350000 W=4200000
+ AS=1.26e+12 AD=1.26e+12 PS=9600000 PD=9600000
M$733 \$1986 \$1988 GND GND sky130_fd_pr__nfet_01v8_lvt L=350000 W=4200000
+ AS=1.26e+12 AD=1.26e+12 PS=9600000 PD=9600000
M$735 \$283 \$281 GND GND sky130_fd_pr__nfet_01v8_lvt L=350000 W=4200000
+ AS=1.26e+12 AD=1.26e+12 PS=9600000 PD=9600000
M$737 \$1988 \$1990 GND GND sky130_fd_pr__nfet_01v8_lvt L=350000 W=4200000
+ AS=1.26e+12 AD=1.26e+12 PS=9600000 PD=9600000
M$739 \$285 \$283 GND GND sky130_fd_pr__nfet_01v8_lvt L=350000 W=4200000
+ AS=1.26e+12 AD=1.26e+12 PS=9600000 PD=9600000
M$741 \$1990 \$1992 GND GND sky130_fd_pr__nfet_01v8_lvt L=350000 W=4200000
+ AS=1.26e+12 AD=1.26e+12 PS=9600000 PD=9600000
M$743 \$287 \$285 GND GND sky130_fd_pr__nfet_01v8_lvt L=350000 W=4200000
+ AS=1.26e+12 AD=1.26e+12 PS=9600000 PD=9600000
M$745 \$1992 \$1994 GND GND sky130_fd_pr__nfet_01v8_lvt L=350000 W=4200000
+ AS=1.26e+12 AD=1.26e+12 PS=9600000 PD=9600000
M$747 \$289 \$287 GND GND sky130_fd_pr__nfet_01v8_lvt L=350000 W=4200000
+ AS=1.26e+12 AD=1.26e+12 PS=9600000 PD=9600000
M$749 \$1994 \$1996 GND GND sky130_fd_pr__nfet_01v8_lvt L=350000 W=4200000
+ AS=1.26e+12 AD=1.26e+12 PS=9600000 PD=9600000
M$751 \$291 \$289 GND GND sky130_fd_pr__nfet_01v8_lvt L=350000 W=4200000
+ AS=1.26e+12 AD=1.26e+12 PS=9600000 PD=9600000
M$753 \$1996 \$1998 GND GND sky130_fd_pr__nfet_01v8_lvt L=350000 W=4200000
+ AS=1.26e+12 AD=1.26e+12 PS=9600000 PD=9600000
M$755 \$293 \$291 GND GND sky130_fd_pr__nfet_01v8_lvt L=350000 W=4200000
+ AS=1.26e+12 AD=1.26e+12 PS=9600000 PD=9600000
M$757 \$1998 \$2000 GND GND sky130_fd_pr__nfet_01v8_lvt L=350000 W=4200000
+ AS=1.26e+12 AD=1.26e+12 PS=9600000 PD=9600000
M$759 \$295 \$293 GND GND sky130_fd_pr__nfet_01v8_lvt L=350000 W=4200000
+ AS=1.26e+12 AD=1.26e+12 PS=9600000 PD=9600000
M$761 \$2000 \$2002 GND GND sky130_fd_pr__nfet_01v8_lvt L=350000 W=4200000
+ AS=1.26e+12 AD=1.26e+12 PS=9600000 PD=9600000
M$763 \$297 \$295 GND GND sky130_fd_pr__nfet_01v8_lvt L=350000 W=4200000
+ AS=1.26e+12 AD=1.26e+12 PS=9600000 PD=9600000
M$765 \$2002 \$2004 GND GND sky130_fd_pr__nfet_01v8_lvt L=350000 W=4200000
+ AS=1.26e+12 AD=1.26e+12 PS=9600000 PD=9600000
M$767 \$299 \$297 GND GND sky130_fd_pr__nfet_01v8_lvt L=350000 W=4200000
+ AS=1.26e+12 AD=1.26e+12 PS=9600000 PD=9600000
M$769 \$2004 \$2006 GND GND sky130_fd_pr__nfet_01v8_lvt L=350000 W=4200000
+ AS=1.26e+12 AD=1.26e+12 PS=9600000 PD=9600000
M$771 \$301 \$299 GND GND sky130_fd_pr__nfet_01v8_lvt L=350000 W=4200000
+ AS=1.26e+12 AD=1.26e+12 PS=9600000 PD=9600000
M$773 \$2006 \$2008 GND GND sky130_fd_pr__nfet_01v8_lvt L=350000 W=4200000
+ AS=1.26e+12 AD=1.26e+12 PS=9600000 PD=9600000
M$775 \$303 \$301 GND GND sky130_fd_pr__nfet_01v8_lvt L=350000 W=4200000
+ AS=1.26e+12 AD=1.26e+12 PS=9600000 PD=9600000
M$777 \$2008 \$2010 GND GND sky130_fd_pr__nfet_01v8_lvt L=350000 W=4200000
+ AS=1.26e+12 AD=1.26e+12 PS=9600000 PD=9600000
M$779 \$305 \$303 GND GND sky130_fd_pr__nfet_01v8_lvt L=350000 W=4200000
+ AS=1.26e+12 AD=1.26e+12 PS=9600000 PD=9600000
M$781 \$2010 \$2012 GND GND sky130_fd_pr__nfet_01v8_lvt L=350000 W=4200000
+ AS=1.26e+12 AD=1.26e+12 PS=9600000 PD=9600000