* Extracted by KLayout with SKY130 LVS runset on : 10/11/2024 16:10

.SUBCKT RO_LVT_101St_x1 DUT_Gate RON DUT_Footer Drain_Force GND Drain_Sense RO
+ DUT_Header VDD OUT
M$1 VDD \$290 \$149 VDD sky130_fd_pr__pfet_01v8_lvt L=350000 W=19000000
+ AS=4.275e+12 AD=4.275e+12 PS=30300000 PD=30300000
M$5 VDD \$149 \$150 VDD sky130_fd_pr__pfet_01v8_lvt L=350000 W=19000000
+ AS=4.275e+12 AD=4.275e+12 PS=30300000 PD=30300000
M$9 VDD \$150 \$151 VDD sky130_fd_pr__pfet_01v8_lvt L=350000 W=19000000
+ AS=4.275e+12 AD=4.275e+12 PS=30300000 PD=30300000
M$13 VDD \$151 \$152 VDD sky130_fd_pr__pfet_01v8_lvt L=350000 W=19000000
+ AS=4.275e+12 AD=4.275e+12 PS=30300000 PD=30300000
M$17 VDD \$152 \$153 VDD sky130_fd_pr__pfet_01v8_lvt L=350000 W=19000000
+ AS=4.275e+12 AD=4.275e+12 PS=30300000 PD=30300000
M$21 VDD \$153 \$154 VDD sky130_fd_pr__pfet_01v8_lvt L=350000 W=19000000
+ AS=4.275e+12 AD=4.275e+12 PS=30300000 PD=30300000
M$25 VDD \$154 \$155 VDD sky130_fd_pr__pfet_01v8_lvt L=350000 W=19000000
+ AS=4.275e+12 AD=4.275e+12 PS=30300000 PD=30300000
M$29 VDD \$155 \$156 VDD sky130_fd_pr__pfet_01v8_lvt L=350000 W=19000000
+ AS=4.275e+12 AD=4.275e+12 PS=30300000 PD=30300000
M$33 VDD \$156 \$157 VDD sky130_fd_pr__pfet_01v8_lvt L=350000 W=19000000
+ AS=4.275e+12 AD=4.275e+12 PS=30300000 PD=30300000
M$37 VDD \$157 \$158 VDD sky130_fd_pr__pfet_01v8_lvt L=350000 W=19000000
+ AS=4.275e+12 AD=4.275e+12 PS=30300000 PD=30300000
M$41 VDD \$158 \$159 VDD sky130_fd_pr__pfet_01v8_lvt L=350000 W=19000000
+ AS=4.275e+12 AD=4.275e+12 PS=30300000 PD=30300000
M$45 VDD \$159 \$160 VDD sky130_fd_pr__pfet_01v8_lvt L=350000 W=19000000
+ AS=4.275e+12 AD=4.275e+12 PS=30300000 PD=30300000
M$49 VDD \$160 \$161 VDD sky130_fd_pr__pfet_01v8_lvt L=350000 W=19000000
+ AS=4.275e+12 AD=4.275e+12 PS=30300000 PD=30300000
M$53 VDD \$161 \$162 VDD sky130_fd_pr__pfet_01v8_lvt L=350000 W=19000000
+ AS=4.275e+12 AD=4.275e+12 PS=30300000 PD=30300000
M$57 VDD \$162 \$163 VDD sky130_fd_pr__pfet_01v8_lvt L=350000 W=19000000
+ AS=4.275e+12 AD=4.275e+12 PS=30300000 PD=30300000
M$61 VDD \$163 \$164 VDD sky130_fd_pr__pfet_01v8_lvt L=350000 W=19000000
+ AS=4.275e+12 AD=4.275e+12 PS=30300000 PD=30300000
M$65 VDD \$164 \$165 VDD sky130_fd_pr__pfet_01v8_lvt L=350000 W=19000000
+ AS=4.275e+12 AD=4.275e+12 PS=30300000 PD=30300000
M$69 VDD \$165 \$166 VDD sky130_fd_pr__pfet_01v8_lvt L=350000 W=19000000
+ AS=4.275e+12 AD=4.275e+12 PS=30300000 PD=30300000
M$73 VDD \$166 \$167 VDD sky130_fd_pr__pfet_01v8_lvt L=350000 W=19000000
+ AS=4.275e+12 AD=4.275e+12 PS=30300000 PD=30300000
M$77 VDD \$167 \$168 VDD sky130_fd_pr__pfet_01v8_lvt L=350000 W=19000000
+ AS=4.275e+12 AD=4.275e+12 PS=30300000 PD=30300000
M$81 VDD \$168 \$169 VDD sky130_fd_pr__pfet_01v8_lvt L=350000 W=19000000
+ AS=4.275e+12 AD=4.275e+12 PS=30300000 PD=30300000
M$85 VDD \$169 \$170 VDD sky130_fd_pr__pfet_01v8_lvt L=350000 W=19000000
+ AS=4.275e+12 AD=4.275e+12 PS=30300000 PD=30300000
M$89 VDD \$170 \$171 VDD sky130_fd_pr__pfet_01v8_lvt L=350000 W=19000000
+ AS=4.275e+12 AD=4.275e+12 PS=30300000 PD=30300000
M$93 VDD \$171 \$172 VDD sky130_fd_pr__pfet_01v8_lvt L=350000 W=19000000
+ AS=4.275e+12 AD=4.275e+12 PS=30300000 PD=30300000
M$97 VDD \$172 \$173 VDD sky130_fd_pr__pfet_01v8_lvt L=350000 W=19000000
+ AS=4.275e+12 AD=4.275e+12 PS=30300000 PD=30300000
M$101 VDD \$173 \$174 VDD sky130_fd_pr__pfet_01v8_lvt L=350000 W=19000000
+ AS=4.275e+12 AD=4.275e+12 PS=30300000 PD=30300000
M$105 VDD \$174 \$175 VDD sky130_fd_pr__pfet_01v8_lvt L=350000 W=19000000
+ AS=4.275e+12 AD=4.275e+12 PS=30300000 PD=30300000
M$109 VDD \$175 \$176 VDD sky130_fd_pr__pfet_01v8_lvt L=350000 W=19000000
+ AS=4.275e+12 AD=4.275e+12 PS=30300000 PD=30300000
M$113 VDD \$176 \$177 VDD sky130_fd_pr__pfet_01v8_lvt L=350000 W=19000000
+ AS=4.275e+12 AD=4.275e+12 PS=30300000 PD=30300000
M$117 VDD \$177 \$178 VDD sky130_fd_pr__pfet_01v8_lvt L=350000 W=19000000
+ AS=4.275e+12 AD=4.275e+12 PS=30300000 PD=30300000
M$121 VDD \$178 \$179 VDD sky130_fd_pr__pfet_01v8_lvt L=350000 W=19000000
+ AS=4.275e+12 AD=4.275e+12 PS=30300000 PD=30300000
M$125 VDD \$179 \$180 VDD sky130_fd_pr__pfet_01v8_lvt L=350000 W=19000000
+ AS=4.275e+12 AD=4.275e+12 PS=30300000 PD=30300000
M$129 VDD \$180 \$181 VDD sky130_fd_pr__pfet_01v8_lvt L=350000 W=19000000
+ AS=4.275e+12 AD=4.275e+12 PS=30300000 PD=30300000
M$133 VDD \$181 \$182 VDD sky130_fd_pr__pfet_01v8_lvt L=350000 W=19000000
+ AS=4.275e+12 AD=4.275e+12 PS=30300000 PD=30300000
M$137 VDD \$182 \$183 VDD sky130_fd_pr__pfet_01v8_lvt L=350000 W=19000000
+ AS=4.275e+12 AD=4.275e+12 PS=30300000 PD=30300000
M$141 VDD \$183 \$184 VDD sky130_fd_pr__pfet_01v8_lvt L=350000 W=19000000
+ AS=4.275e+12 AD=4.275e+12 PS=30300000 PD=30300000
M$145 VDD \$184 \$185 VDD sky130_fd_pr__pfet_01v8_lvt L=350000 W=19000000
+ AS=4.275e+12 AD=4.275e+12 PS=30300000 PD=30300000
M$149 VDD \$185 \$186 VDD sky130_fd_pr__pfet_01v8_lvt L=350000 W=19000000
+ AS=4.275e+12 AD=4.275e+12 PS=30300000 PD=30300000
M$153 VDD \$186 \$187 VDD sky130_fd_pr__pfet_01v8_lvt L=350000 W=19000000
+ AS=4.275e+12 AD=4.275e+12 PS=30300000 PD=30300000
M$157 VDD \$187 \$188 VDD sky130_fd_pr__pfet_01v8_lvt L=350000 W=19000000
+ AS=4.275e+12 AD=4.275e+12 PS=30300000 PD=30300000
M$161 VDD \$188 \$189 VDD sky130_fd_pr__pfet_01v8_lvt L=350000 W=19000000
+ AS=4.275e+12 AD=4.275e+12 PS=30300000 PD=30300000
M$165 VDD \$189 \$190 VDD sky130_fd_pr__pfet_01v8_lvt L=350000 W=19000000
+ AS=4.275e+12 AD=4.275e+12 PS=30300000 PD=30300000
M$169 VDD \$190 \$191 VDD sky130_fd_pr__pfet_01v8_lvt L=350000 W=19000000
+ AS=4.275e+12 AD=4.275e+12 PS=30300000 PD=30300000
M$173 VDD \$191 \$192 VDD sky130_fd_pr__pfet_01v8_lvt L=350000 W=19000000
+ AS=4.275e+12 AD=4.275e+12 PS=30300000 PD=30300000
M$177 \$341 \$192 \$291 VDD sky130_fd_pr__pfet_01v8_lvt L=350000 W=19000000
+ AS=4.275e+12 AD=4.275e+12 PS=30300000 PD=30300000
M$181 VDD RON \$341 VDD sky130_fd_pr__pfet_01v8_lvt L=350000 W=190000000
+ AS=2.92125e+13 AD=2.92125e+13 PS=207050000 PD=207050000
M$221 \$342 \$291 \$194 VDD sky130_fd_pr__pfet_01v8_lvt L=350000 W=19000000
+ AS=4.275e+12 AD=4.275e+12 PS=30300000 PD=30300000
M$225 VDD DUT_Footer \$342 VDD sky130_fd_pr__pfet_01v8_lvt L=350000 W=190000000
+ AS=2.92125e+13 AD=2.92125e+13 PS=207050000 PD=207050000
M$265 \$343 \$194 \$292 VDD sky130_fd_pr__pfet_01v8_lvt L=350000 W=19000000
+ AS=4.275e+12 AD=4.275e+12 PS=30300000 PD=30300000
M$269 VDD RON \$343 VDD sky130_fd_pr__pfet_01v8_lvt L=350000 W=190000000
+ AS=2.92125e+13 AD=2.92125e+13 PS=207050000 PD=207050000
M$309 \$149 VDD \$196 VDD sky130_fd_pr__pfet_01v8_lvt L=350000 W=450000
+ AS=135000000000 AD=135000000000 PS=1500000 PD=1500000
M$310 VDD \$600 \$290 VDD sky130_fd_pr__pfet_01v8_lvt L=350000 W=19000000
+ AS=4.275e+12 AD=4.275e+12 PS=30300000 PD=30300000
M$314 \$149 VDD \$197 VDD sky130_fd_pr__pfet_01v8_lvt L=350000 W=450000
+ AS=135000000000 AD=135000000000 PS=1500000 PD=1500000
M$315 \$150 VDD \$198 VDD sky130_fd_pr__pfet_01v8_lvt L=350000 W=450000
+ AS=135000000000 AD=135000000000 PS=1500000 PD=1500000
M$316 VDD \$601 \$600 VDD sky130_fd_pr__pfet_01v8_lvt L=350000 W=19000000
+ AS=4.275e+12 AD=4.275e+12 PS=30300000 PD=30300000
M$320 \$150 VDD \$199 VDD sky130_fd_pr__pfet_01v8_lvt L=350000 W=450000
+ AS=135000000000 AD=135000000000 PS=1500000 PD=1500000
M$321 \$151 VDD \$200 VDD sky130_fd_pr__pfet_01v8_lvt L=350000 W=450000
+ AS=135000000000 AD=135000000000 PS=1500000 PD=1500000
M$322 VDD \$602 \$601 VDD sky130_fd_pr__pfet_01v8_lvt L=350000 W=19000000
+ AS=4.275e+12 AD=4.275e+12 PS=30300000 PD=30300000
M$326 \$151 VDD \$201 VDD sky130_fd_pr__pfet_01v8_lvt L=350000 W=450000
+ AS=135000000000 AD=135000000000 PS=1500000 PD=1500000
M$327 \$152 VDD \$202 VDD sky130_fd_pr__pfet_01v8_lvt L=350000 W=450000
+ AS=135000000000 AD=135000000000 PS=1500000 PD=1500000
M$328 VDD \$603 \$602 VDD sky130_fd_pr__pfet_01v8_lvt L=350000 W=19000000
+ AS=4.275e+12 AD=4.275e+12 PS=30300000 PD=30300000
M$332 \$152 VDD \$203 VDD sky130_fd_pr__pfet_01v8_lvt L=350000 W=450000
+ AS=135000000000 AD=135000000000 PS=1500000 PD=1500000
M$333 \$153 VDD \$204 VDD sky130_fd_pr__pfet_01v8_lvt L=350000 W=450000
+ AS=135000000000 AD=135000000000 PS=1500000 PD=1500000
M$334 VDD \$604 \$603 VDD sky130_fd_pr__pfet_01v8_lvt L=350000 W=19000000
+ AS=4.275e+12 AD=4.275e+12 PS=30300000 PD=30300000
M$338 \$153 VDD \$205 VDD sky130_fd_pr__pfet_01v8_lvt L=350000 W=450000
+ AS=135000000000 AD=135000000000 PS=1500000 PD=1500000
M$339 \$154 VDD \$206 VDD sky130_fd_pr__pfet_01v8_lvt L=350000 W=450000
+ AS=135000000000 AD=135000000000 PS=1500000 PD=1500000
M$340 VDD \$605 \$604 VDD sky130_fd_pr__pfet_01v8_lvt L=350000 W=19000000
+ AS=4.275e+12 AD=4.275e+12 PS=30300000 PD=30300000
M$344 \$154 VDD \$207 VDD sky130_fd_pr__pfet_01v8_lvt L=350000 W=450000
+ AS=135000000000 AD=135000000000 PS=1500000 PD=1500000
M$345 \$155 VDD \$208 VDD sky130_fd_pr__pfet_01v8_lvt L=350000 W=450000
+ AS=135000000000 AD=135000000000 PS=1500000 PD=1500000
M$346 VDD \$606 \$605 VDD sky130_fd_pr__pfet_01v8_lvt L=350000 W=19000000
+ AS=4.275e+12 AD=4.275e+12 PS=30300000 PD=30300000
M$350 \$155 VDD \$209 VDD sky130_fd_pr__pfet_01v8_lvt L=350000 W=450000
+ AS=135000000000 AD=135000000000 PS=1500000 PD=1500000
M$351 \$156 VDD \$210 VDD sky130_fd_pr__pfet_01v8_lvt L=350000 W=450000
+ AS=135000000000 AD=135000000000 PS=1500000 PD=1500000
M$352 VDD \$607 \$606 VDD sky130_fd_pr__pfet_01v8_lvt L=350000 W=19000000
+ AS=4.275e+12 AD=4.275e+12 PS=30300000 PD=30300000
M$356 \$156 VDD \$211 VDD sky130_fd_pr__pfet_01v8_lvt L=350000 W=450000
+ AS=135000000000 AD=135000000000 PS=1500000 PD=1500000
M$357 \$157 VDD \$212 VDD sky130_fd_pr__pfet_01v8_lvt L=350000 W=450000
+ AS=135000000000 AD=135000000000 PS=1500000 PD=1500000
M$358 VDD \$608 \$607 VDD sky130_fd_pr__pfet_01v8_lvt L=350000 W=19000000
+ AS=4.275e+12 AD=4.275e+12 PS=30300000 PD=30300000
M$362 \$157 VDD \$213 VDD sky130_fd_pr__pfet_01v8_lvt L=350000 W=450000
+ AS=135000000000 AD=135000000000 PS=1500000 PD=1500000
M$363 \$158 VDD \$214 VDD sky130_fd_pr__pfet_01v8_lvt L=350000 W=450000
+ AS=135000000000 AD=135000000000 PS=1500000 PD=1500000
M$364 VDD \$609 \$608 VDD sky130_fd_pr__pfet_01v8_lvt L=350000 W=19000000
+ AS=4.275e+12 AD=4.275e+12 PS=30300000 PD=30300000
M$368 \$158 VDD \$215 VDD sky130_fd_pr__pfet_01v8_lvt L=350000 W=450000
+ AS=135000000000 AD=135000000000 PS=1500000 PD=1500000
M$369 \$159 VDD \$216 VDD sky130_fd_pr__pfet_01v8_lvt L=350000 W=450000
+ AS=135000000000 AD=135000000000 PS=1500000 PD=1500000
M$370 VDD \$610 \$609 VDD sky130_fd_pr__pfet_01v8_lvt L=350000 W=19000000
+ AS=4.275e+12 AD=4.275e+12 PS=30300000 PD=30300000
M$374 \$159 VDD \$217 VDD sky130_fd_pr__pfet_01v8_lvt L=350000 W=450000
+ AS=135000000000 AD=135000000000 PS=1500000 PD=1500000
M$375 \$160 VDD \$218 VDD sky130_fd_pr__pfet_01v8_lvt L=350000 W=450000
+ AS=135000000000 AD=135000000000 PS=1500000 PD=1500000
M$376 VDD \$611 \$610 VDD sky130_fd_pr__pfet_01v8_lvt L=350000 W=19000000
+ AS=4.275e+12 AD=4.275e+12 PS=30300000 PD=30300000
M$380 \$160 VDD \$219 VDD sky130_fd_pr__pfet_01v8_lvt L=350000 W=450000
+ AS=135000000000 AD=135000000000 PS=1500000 PD=1500000
M$381 \$161 VDD \$220 VDD sky130_fd_pr__pfet_01v8_lvt L=350000 W=450000
+ AS=135000000000 AD=135000000000 PS=1500000 PD=1500000
M$382 VDD \$612 \$611 VDD sky130_fd_pr__pfet_01v8_lvt L=350000 W=19000000
+ AS=4.275e+12 AD=4.275e+12 PS=30300000 PD=30300000
M$386 \$161 VDD \$221 VDD sky130_fd_pr__pfet_01v8_lvt L=350000 W=450000
+ AS=135000000000 AD=135000000000 PS=1500000 PD=1500000
M$387 \$162 VDD \$222 VDD sky130_fd_pr__pfet_01v8_lvt L=350000 W=450000
+ AS=135000000000 AD=135000000000 PS=1500000 PD=1500000
M$388 VDD \$613 \$612 VDD sky130_fd_pr__pfet_01v8_lvt L=350000 W=19000000
+ AS=4.275e+12 AD=4.275e+12 PS=30300000 PD=30300000
M$392 \$162 VDD \$223 VDD sky130_fd_pr__pfet_01v8_lvt L=350000 W=450000
+ AS=135000000000 AD=135000000000 PS=1500000 PD=1500000
M$393 \$163 VDD \$224 VDD sky130_fd_pr__pfet_01v8_lvt L=350000 W=450000
+ AS=135000000000 AD=135000000000 PS=1500000 PD=1500000
M$394 VDD \$614 \$613 VDD sky130_fd_pr__pfet_01v8_lvt L=350000 W=19000000
+ AS=4.275e+12 AD=4.275e+12 PS=30300000 PD=30300000
M$398 \$163 VDD \$225 VDD sky130_fd_pr__pfet_01v8_lvt L=350000 W=450000
+ AS=135000000000 AD=135000000000 PS=1500000 PD=1500000
M$399 \$164 VDD \$226 VDD sky130_fd_pr__pfet_01v8_lvt L=350000 W=450000
+ AS=135000000000 AD=135000000000 PS=1500000 PD=1500000
M$400 VDD \$615 \$614 VDD sky130_fd_pr__pfet_01v8_lvt L=350000 W=19000000
+ AS=4.275e+12 AD=4.275e+12 PS=30300000 PD=30300000
M$404 \$164 VDD \$227 VDD sky130_fd_pr__pfet_01v8_lvt L=350000 W=450000
+ AS=135000000000 AD=135000000000 PS=1500000 PD=1500000
M$405 \$165 VDD \$228 VDD sky130_fd_pr__pfet_01v8_lvt L=350000 W=450000
+ AS=135000000000 AD=135000000000 PS=1500000 PD=1500000
M$406 VDD \$616 \$615 VDD sky130_fd_pr__pfet_01v8_lvt L=350000 W=19000000
+ AS=4.275e+12 AD=4.275e+12 PS=30300000 PD=30300000
M$410 \$165 VDD \$229 VDD sky130_fd_pr__pfet_01v8_lvt L=350000 W=450000
+ AS=135000000000 AD=135000000000 PS=1500000 PD=1500000
M$411 \$166 VDD \$230 VDD sky130_fd_pr__pfet_01v8_lvt L=350000 W=450000
+ AS=135000000000 AD=135000000000 PS=1500000 PD=1500000
M$412 VDD \$617 \$616 VDD sky130_fd_pr__pfet_01v8_lvt L=350000 W=19000000
+ AS=4.275e+12 AD=4.275e+12 PS=30300000 PD=30300000
M$416 \$166 VDD \$231 VDD sky130_fd_pr__pfet_01v8_lvt L=350000 W=450000
+ AS=135000000000 AD=135000000000 PS=1500000 PD=1500000
M$417 \$167 VDD \$232 VDD sky130_fd_pr__pfet_01v8_lvt L=350000 W=450000
+ AS=135000000000 AD=135000000000 PS=1500000 PD=1500000
M$418 VDD \$618 \$617 VDD sky130_fd_pr__pfet_01v8_lvt L=350000 W=19000000
+ AS=4.275e+12 AD=4.275e+12 PS=30300000 PD=30300000
M$422 \$167 VDD \$233 VDD sky130_fd_pr__pfet_01v8_lvt L=350000 W=450000
+ AS=135000000000 AD=135000000000 PS=1500000 PD=1500000
M$423 \$168 VDD \$234 VDD sky130_fd_pr__pfet_01v8_lvt L=350000 W=450000
+ AS=135000000000 AD=135000000000 PS=1500000 PD=1500000
M$424 VDD \$619 \$618 VDD sky130_fd_pr__pfet_01v8_lvt L=350000 W=19000000
+ AS=4.275e+12 AD=4.275e+12 PS=30300000 PD=30300000
M$428 \$168 VDD \$235 VDD sky130_fd_pr__pfet_01v8_lvt L=350000 W=450000
+ AS=135000000000 AD=135000000000 PS=1500000 PD=1500000
M$429 \$169 VDD \$236 VDD sky130_fd_pr__pfet_01v8_lvt L=350000 W=450000
+ AS=135000000000 AD=135000000000 PS=1500000 PD=1500000
M$430 VDD \$620 \$619 VDD sky130_fd_pr__pfet_01v8_lvt L=350000 W=19000000
+ AS=4.275e+12 AD=4.275e+12 PS=30300000 PD=30300000
M$434 \$169 VDD \$237 VDD sky130_fd_pr__pfet_01v8_lvt L=350000 W=450000
+ AS=135000000000 AD=135000000000 PS=1500000 PD=1500000
M$435 \$170 VDD \$238 VDD sky130_fd_pr__pfet_01v8_lvt L=350000 W=450000
+ AS=135000000000 AD=135000000000 PS=1500000 PD=1500000
M$436 VDD \$621 \$620 VDD sky130_fd_pr__pfet_01v8_lvt L=350000 W=19000000
+ AS=4.275e+12 AD=4.275e+12 PS=30300000 PD=30300000
M$440 \$170 VDD \$239 VDD sky130_fd_pr__pfet_01v8_lvt L=350000 W=450000
+ AS=135000000000 AD=135000000000 PS=1500000 PD=1500000
M$441 \$171 VDD \$240 VDD sky130_fd_pr__pfet_01v8_lvt L=350000 W=450000
+ AS=135000000000 AD=135000000000 PS=1500000 PD=1500000
M$442 VDD \$622 \$621 VDD sky130_fd_pr__pfet_01v8_lvt L=350000 W=19000000
+ AS=4.275e+12 AD=4.275e+12 PS=30300000 PD=30300000
M$446 \$171 VDD \$241 VDD sky130_fd_pr__pfet_01v8_lvt L=350000 W=450000
+ AS=135000000000 AD=135000000000 PS=1500000 PD=1500000
M$447 \$172 VDD \$242 VDD sky130_fd_pr__pfet_01v8_lvt L=350000 W=450000
+ AS=135000000000 AD=135000000000 PS=1500000 PD=1500000
M$448 VDD \$623 \$622 VDD sky130_fd_pr__pfet_01v8_lvt L=350000 W=19000000
+ AS=4.275e+12 AD=4.275e+12 PS=30300000 PD=30300000
M$452 \$172 VDD \$243 VDD sky130_fd_pr__pfet_01v8_lvt L=350000 W=450000
+ AS=135000000000 AD=135000000000 PS=1500000 PD=1500000
M$453 \$173 VDD \$244 VDD sky130_fd_pr__pfet_01v8_lvt L=350000 W=450000
+ AS=135000000000 AD=135000000000 PS=1500000 PD=1500000
M$454 VDD \$624 \$623 VDD sky130_fd_pr__pfet_01v8_lvt L=350000 W=19000000
+ AS=4.275e+12 AD=4.275e+12 PS=30300000 PD=30300000
M$458 \$173 VDD \$245 VDD sky130_fd_pr__pfet_01v8_lvt L=350000 W=450000
+ AS=135000000000 AD=135000000000 PS=1500000 PD=1500000
M$459 \$174 VDD \$246 VDD sky130_fd_pr__pfet_01v8_lvt L=350000 W=450000
+ AS=135000000000 AD=135000000000 PS=1500000 PD=1500000
M$460 VDD \$625 \$624 VDD sky130_fd_pr__pfet_01v8_lvt L=350000 W=19000000
+ AS=4.275e+12 AD=4.275e+12 PS=30300000 PD=30300000
M$464 \$174 VDD \$247 VDD sky130_fd_pr__pfet_01v8_lvt L=350000 W=450000
+ AS=135000000000 AD=135000000000 PS=1500000 PD=1500000
M$465 \$175 VDD \$248 VDD sky130_fd_pr__pfet_01v8_lvt L=350000 W=450000
+ AS=135000000000 AD=135000000000 PS=1500000 PD=1500000
M$466 VDD \$626 \$625 VDD sky130_fd_pr__pfet_01v8_lvt L=350000 W=19000000
+ AS=4.275e+12 AD=4.275e+12 PS=30300000 PD=30300000
M$470 \$175 VDD \$249 VDD sky130_fd_pr__pfet_01v8_lvt L=350000 W=450000
+ AS=135000000000 AD=135000000000 PS=1500000 PD=1500000
M$471 \$176 VDD \$250 VDD sky130_fd_pr__pfet_01v8_lvt L=350000 W=450000
+ AS=135000000000 AD=135000000000 PS=1500000 PD=1500000
M$472 VDD \$627 \$626 VDD sky130_fd_pr__pfet_01v8_lvt L=350000 W=19000000
+ AS=4.275e+12 AD=4.275e+12 PS=30300000 PD=30300000
M$476 \$176 VDD \$251 VDD sky130_fd_pr__pfet_01v8_lvt L=350000 W=450000
+ AS=135000000000 AD=135000000000 PS=1500000 PD=1500000
M$477 \$177 VDD \$252 VDD sky130_fd_pr__pfet_01v8_lvt L=350000 W=450000
+ AS=135000000000 AD=135000000000 PS=1500000 PD=1500000
M$478 VDD \$628 \$627 VDD sky130_fd_pr__pfet_01v8_lvt L=350000 W=19000000
+ AS=4.275e+12 AD=4.275e+12 PS=30300000 PD=30300000
M$482 \$177 VDD \$253 VDD sky130_fd_pr__pfet_01v8_lvt L=350000 W=450000
+ AS=135000000000 AD=135000000000 PS=1500000 PD=1500000
M$483 \$178 VDD \$254 VDD sky130_fd_pr__pfet_01v8_lvt L=350000 W=450000
+ AS=135000000000 AD=135000000000 PS=1500000 PD=1500000
M$484 VDD \$629 \$628 VDD sky130_fd_pr__pfet_01v8_lvt L=350000 W=19000000
+ AS=4.275e+12 AD=4.275e+12 PS=30300000 PD=30300000
M$488 \$178 VDD \$255 VDD sky130_fd_pr__pfet_01v8_lvt L=350000 W=450000
+ AS=135000000000 AD=135000000000 PS=1500000 PD=1500000
M$489 \$179 VDD \$256 VDD sky130_fd_pr__pfet_01v8_lvt L=350000 W=450000
+ AS=135000000000 AD=135000000000 PS=1500000 PD=1500000
M$490 VDD \$630 \$629 VDD sky130_fd_pr__pfet_01v8_lvt L=350000 W=19000000
+ AS=4.275e+12 AD=4.275e+12 PS=30300000 PD=30300000
M$494 \$179 VDD \$257 VDD sky130_fd_pr__pfet_01v8_lvt L=350000 W=450000
+ AS=135000000000 AD=135000000000 PS=1500000 PD=1500000
M$495 \$180 VDD \$258 VDD sky130_fd_pr__pfet_01v8_lvt L=350000 W=450000
+ AS=135000000000 AD=135000000000 PS=1500000 PD=1500000
M$496 VDD \$631 \$630 VDD sky130_fd_pr__pfet_01v8_lvt L=350000 W=19000000
+ AS=4.275e+12 AD=4.275e+12 PS=30300000 PD=30300000
M$500 \$180 VDD \$259 VDD sky130_fd_pr__pfet_01v8_lvt L=350000 W=450000
+ AS=135000000000 AD=135000000000 PS=1500000 PD=1500000
M$501 \$181 VDD \$260 VDD sky130_fd_pr__pfet_01v8_lvt L=350000 W=450000
+ AS=135000000000 AD=135000000000 PS=1500000 PD=1500000
M$502 VDD \$632 \$631 VDD sky130_fd_pr__pfet_01v8_lvt L=350000 W=19000000
+ AS=4.275e+12 AD=4.275e+12 PS=30300000 PD=30300000
M$506 \$181 VDD \$261 VDD sky130_fd_pr__pfet_01v8_lvt L=350000 W=450000
+ AS=135000000000 AD=135000000000 PS=1500000 PD=1500000
M$507 \$182 VDD \$262 VDD sky130_fd_pr__pfet_01v8_lvt L=350000 W=450000
+ AS=135000000000 AD=135000000000 PS=1500000 PD=1500000
M$508 VDD \$633 \$632 VDD sky130_fd_pr__pfet_01v8_lvt L=350000 W=19000000
+ AS=4.275e+12 AD=4.275e+12 PS=30300000 PD=30300000
M$512 \$182 VDD \$263 VDD sky130_fd_pr__pfet_01v8_lvt L=350000 W=450000
+ AS=135000000000 AD=135000000000 PS=1500000 PD=1500000
M$513 \$183 VDD \$264 VDD sky130_fd_pr__pfet_01v8_lvt L=350000 W=450000
+ AS=135000000000 AD=135000000000 PS=1500000 PD=1500000
M$514 VDD \$634 \$633 VDD sky130_fd_pr__pfet_01v8_lvt L=350000 W=19000000
+ AS=4.275e+12 AD=4.275e+12 PS=30300000 PD=30300000
M$518 \$183 VDD \$265 VDD sky130_fd_pr__pfet_01v8_lvt L=350000 W=450000
+ AS=135000000000 AD=135000000000 PS=1500000 PD=1500000
M$519 \$184 VDD \$266 VDD sky130_fd_pr__pfet_01v8_lvt L=350000 W=450000
+ AS=135000000000 AD=135000000000 PS=1500000 PD=1500000
M$520 VDD \$635 \$634 VDD sky130_fd_pr__pfet_01v8_lvt L=350000 W=19000000
+ AS=4.275e+12 AD=4.275e+12 PS=30300000 PD=30300000
M$524 \$184 VDD \$267 VDD sky130_fd_pr__pfet_01v8_lvt L=350000 W=450000
+ AS=135000000000 AD=135000000000 PS=1500000 PD=1500000
M$525 \$185 VDD \$268 VDD sky130_fd_pr__pfet_01v8_lvt L=350000 W=450000
+ AS=135000000000 AD=135000000000 PS=1500000 PD=1500000
M$526 VDD \$636 \$635 VDD sky130_fd_pr__pfet_01v8_lvt L=350000 W=19000000
+ AS=4.275e+12 AD=4.275e+12 PS=30300000 PD=30300000
M$530 \$185 VDD \$269 VDD sky130_fd_pr__pfet_01v8_lvt L=350000 W=450000
+ AS=135000000000 AD=135000000000 PS=1500000 PD=1500000
M$531 \$186 VDD \$270 VDD sky130_fd_pr__pfet_01v8_lvt L=350000 W=450000
+ AS=135000000000 AD=135000000000 PS=1500000 PD=1500000
M$532 VDD \$637 \$636 VDD sky130_fd_pr__pfet_01v8_lvt L=350000 W=19000000
+ AS=4.275e+12 AD=4.275e+12 PS=30300000 PD=30300000
M$536 \$186 VDD \$271 VDD sky130_fd_pr__pfet_01v8_lvt L=350000 W=450000
+ AS=135000000000 AD=135000000000 PS=1500000 PD=1500000
M$537 \$187 VDD \$272 VDD sky130_fd_pr__pfet_01v8_lvt L=350000 W=450000
+ AS=135000000000 AD=135000000000 PS=1500000 PD=1500000
M$538 VDD \$638 \$637 VDD sky130_fd_pr__pfet_01v8_lvt L=350000 W=19000000
+ AS=4.275e+12 AD=4.275e+12 PS=30300000 PD=30300000
M$542 \$187 VDD \$273 VDD sky130_fd_pr__pfet_01v8_lvt L=350000 W=450000
+ AS=135000000000 AD=135000000000 PS=1500000 PD=1500000
M$543 \$188 VDD \$274 VDD sky130_fd_pr__pfet_01v8_lvt L=350000 W=450000
+ AS=135000000000 AD=135000000000 PS=1500000 PD=1500000
M$544 VDD \$639 \$638 VDD sky130_fd_pr__pfet_01v8_lvt L=350000 W=19000000
+ AS=4.275e+12 AD=4.275e+12 PS=30300000 PD=30300000
M$548 \$188 VDD \$275 VDD sky130_fd_pr__pfet_01v8_lvt L=350000 W=450000
+ AS=135000000000 AD=135000000000 PS=1500000 PD=1500000
M$549 \$189 VDD \$276 VDD sky130_fd_pr__pfet_01v8_lvt L=350000 W=450000
+ AS=135000000000 AD=135000000000 PS=1500000 PD=1500000
M$550 VDD \$640 \$639 VDD sky130_fd_pr__pfet_01v8_lvt L=350000 W=19000000
+ AS=4.275e+12 AD=4.275e+12 PS=30300000 PD=30300000
M$554 \$189 VDD \$277 VDD sky130_fd_pr__pfet_01v8_lvt L=350000 W=450000
+ AS=135000000000 AD=135000000000 PS=1500000 PD=1500000
M$555 \$190 VDD \$278 VDD sky130_fd_pr__pfet_01v8_lvt L=350000 W=450000
+ AS=135000000000 AD=135000000000 PS=1500000 PD=1500000
M$556 VDD \$641 \$640 VDD sky130_fd_pr__pfet_01v8_lvt L=350000 W=19000000
+ AS=4.275e+12 AD=4.275e+12 PS=30300000 PD=30300000
M$560 \$190 VDD \$279 VDD sky130_fd_pr__pfet_01v8_lvt L=350000 W=450000
+ AS=135000000000 AD=135000000000 PS=1500000 PD=1500000
M$561 \$191 VDD \$280 VDD sky130_fd_pr__pfet_01v8_lvt L=350000 W=450000
+ AS=135000000000 AD=135000000000 PS=1500000 PD=1500000
M$562 VDD \$642 \$641 VDD sky130_fd_pr__pfet_01v8_lvt L=350000 W=19000000
+ AS=4.275e+12 AD=4.275e+12 PS=30300000 PD=30300000
M$566 \$191 VDD \$281 VDD sky130_fd_pr__pfet_01v8_lvt L=350000 W=450000
+ AS=135000000000 AD=135000000000 PS=1500000 PD=1500000
M$567 \$192 VDD \$282 VDD sky130_fd_pr__pfet_01v8_lvt L=350000 W=450000
+ AS=135000000000 AD=135000000000 PS=1500000 PD=1500000
M$568 VDD \$643 \$642 VDD sky130_fd_pr__pfet_01v8_lvt L=350000 W=19000000
+ AS=4.275e+12 AD=4.275e+12 PS=30300000 PD=30300000
M$572 \$192 VDD \$283 VDD sky130_fd_pr__pfet_01v8_lvt L=350000 W=450000
+ AS=135000000000 AD=135000000000 PS=1500000 PD=1500000
M$573 VDD \$644 \$643 VDD sky130_fd_pr__pfet_01v8_lvt L=350000 W=19000000
+ AS=4.275e+12 AD=4.275e+12 PS=30300000 PD=30300000
M$577 VDD \$645 \$644 VDD sky130_fd_pr__pfet_01v8_lvt L=350000 W=19000000
+ AS=4.275e+12 AD=4.275e+12 PS=30300000 PD=30300000
M$581 VDD \$646 \$645 VDD sky130_fd_pr__pfet_01v8_lvt L=350000 W=19000000
+ AS=4.275e+12 AD=4.275e+12 PS=30300000 PD=30300000
M$585 \$291 RO DUT_Gate VDD sky130_fd_pr__pfet_01v8_lvt L=350000 W=450000
+ AS=135000000000 AD=135000000000 PS=1500000 PD=1500000
M$586 \$291 RO \$284 VDD sky130_fd_pr__pfet_01v8_lvt L=350000 W=450000
+ AS=135000000000 AD=135000000000 PS=1500000 PD=1500000
M$587 VDD \$647 \$646 VDD sky130_fd_pr__pfet_01v8_lvt L=350000 W=19000000
+ AS=4.275e+12 AD=4.275e+12 PS=30300000 PD=30300000
M$591 VDD \$648 \$647 VDD sky130_fd_pr__pfet_01v8_lvt L=350000 W=19000000
+ AS=4.275e+12 AD=4.275e+12 PS=30300000 PD=30300000
M$595 VDD \$649 \$648 VDD sky130_fd_pr__pfet_01v8_lvt L=350000 W=19000000
+ AS=4.275e+12 AD=4.275e+12 PS=30300000 PD=30300000
M$599 Drain_Force RO \$194 VDD sky130_fd_pr__pfet_01v8_lvt L=350000 W=1900000
+ AS=570000000000 AD=570000000000 PS=4400000 PD=4400000
M$600 VDD \$650 \$649 VDD sky130_fd_pr__pfet_01v8_lvt L=350000 W=19000000
+ AS=4.275e+12 AD=4.275e+12 PS=30300000 PD=30300000
M$602 Drain_Sense RO \$194 VDD sky130_fd_pr__pfet_01v8_lvt L=350000 W=1900000
+ AS=570000000000 AD=570000000000 PS=4400000 PD=4400000
M$605 VDD \$651 \$650 VDD sky130_fd_pr__pfet_01v8_lvt L=350000 W=19000000
+ AS=4.275e+12 AD=4.275e+12 PS=30300000 PD=30300000
M$609 VDD OUT \$651 VDD sky130_fd_pr__pfet_01v8_lvt L=350000 W=19000000
+ AS=4.275e+12 AD=4.275e+12 PS=30300000 PD=30300000
M$613 VDD \$292 OUT VDD sky130_fd_pr__pfet_01v8_lvt L=350000 W=19000000
+ AS=4.275e+12 AD=4.275e+12 PS=30300000 PD=30300000
M$617 \$292 VDD GND VDD sky130_fd_pr__pfet_01v8_lvt L=350000 W=450000
+ AS=135000000000 AD=135000000000 PS=1500000 PD=1500000
M$618 \$292 VDD \$286 VDD sky130_fd_pr__pfet_01v8_lvt L=350000 W=450000
+ AS=135000000000 AD=135000000000 PS=1500000 PD=1500000
M$619 \$653 VDD \$290 VDD sky130_fd_pr__pfet_01v8_lvt L=350000 W=450000
+ AS=135000000000 AD=135000000000 PS=1500000 PD=1500000
M$620 \$654 VDD \$290 VDD sky130_fd_pr__pfet_01v8_lvt L=350000 W=450000
+ AS=135000000000 AD=135000000000 PS=1500000 PD=1500000
M$621 \$655 VDD \$600 VDD sky130_fd_pr__pfet_01v8_lvt L=350000 W=450000
+ AS=135000000000 AD=135000000000 PS=1500000 PD=1500000
M$622 \$656 VDD \$600 VDD sky130_fd_pr__pfet_01v8_lvt L=350000 W=450000
+ AS=135000000000 AD=135000000000 PS=1500000 PD=1500000
M$623 \$657 VDD \$601 VDD sky130_fd_pr__pfet_01v8_lvt L=350000 W=450000
+ AS=135000000000 AD=135000000000 PS=1500000 PD=1500000
M$624 \$658 VDD \$601 VDD sky130_fd_pr__pfet_01v8_lvt L=350000 W=450000
+ AS=135000000000 AD=135000000000 PS=1500000 PD=1500000
M$625 \$659 VDD \$602 VDD sky130_fd_pr__pfet_01v8_lvt L=350000 W=450000
+ AS=135000000000 AD=135000000000 PS=1500000 PD=1500000
M$626 \$660 VDD \$602 VDD sky130_fd_pr__pfet_01v8_lvt L=350000 W=450000
+ AS=135000000000 AD=135000000000 PS=1500000 PD=1500000
M$627 \$661 VDD \$603 VDD sky130_fd_pr__pfet_01v8_lvt L=350000 W=450000
+ AS=135000000000 AD=135000000000 PS=1500000 PD=1500000
M$628 \$662 VDD \$603 VDD sky130_fd_pr__pfet_01v8_lvt L=350000 W=450000
+ AS=135000000000 AD=135000000000 PS=1500000 PD=1500000
M$629 \$663 VDD \$604 VDD sky130_fd_pr__pfet_01v8_lvt L=350000 W=450000
+ AS=135000000000 AD=135000000000 PS=1500000 PD=1500000
M$630 \$664 VDD \$604 VDD sky130_fd_pr__pfet_01v8_lvt L=350000 W=450000
+ AS=135000000000 AD=135000000000 PS=1500000 PD=1500000
M$631 \$665 VDD \$605 VDD sky130_fd_pr__pfet_01v8_lvt L=350000 W=450000
+ AS=135000000000 AD=135000000000 PS=1500000 PD=1500000
M$632 \$666 VDD \$605 VDD sky130_fd_pr__pfet_01v8_lvt L=350000 W=450000
+ AS=135000000000 AD=135000000000 PS=1500000 PD=1500000
M$633 \$667 VDD \$606 VDD sky130_fd_pr__pfet_01v8_lvt L=350000 W=450000
+ AS=135000000000 AD=135000000000 PS=1500000 PD=1500000
M$634 \$668 VDD \$606 VDD sky130_fd_pr__pfet_01v8_lvt L=350000 W=450000
+ AS=135000000000 AD=135000000000 PS=1500000 PD=1500000
M$635 \$669 VDD \$607 VDD sky130_fd_pr__pfet_01v8_lvt L=350000 W=450000
+ AS=135000000000 AD=135000000000 PS=1500000 PD=1500000
M$636 \$670 VDD \$607 VDD sky130_fd_pr__pfet_01v8_lvt L=350000 W=450000
+ AS=135000000000 AD=135000000000 PS=1500000 PD=1500000
M$637 \$671 VDD \$608 VDD sky130_fd_pr__pfet_01v8_lvt L=350000 W=450000
+ AS=135000000000 AD=135000000000 PS=1500000 PD=1500000
M$638 \$672 VDD \$608 VDD sky130_fd_pr__pfet_01v8_lvt L=350000 W=450000
+ AS=135000000000 AD=135000000000 PS=1500000 PD=1500000
M$639 \$673 VDD \$609 VDD sky130_fd_pr__pfet_01v8_lvt L=350000 W=450000
+ AS=135000000000 AD=135000000000 PS=1500000 PD=1500000
M$640 \$674 VDD \$609 VDD sky130_fd_pr__pfet_01v8_lvt L=350000 W=450000
+ AS=135000000000 AD=135000000000 PS=1500000 PD=1500000
M$641 \$675 VDD \$610 VDD sky130_fd_pr__pfet_01v8_lvt L=350000 W=450000
+ AS=135000000000 AD=135000000000 PS=1500000 PD=1500000
M$642 \$676 VDD \$610 VDD sky130_fd_pr__pfet_01v8_lvt L=350000 W=450000
+ AS=135000000000 AD=135000000000 PS=1500000 PD=1500000
M$643 \$677 VDD \$611 VDD sky130_fd_pr__pfet_01v8_lvt L=350000 W=450000
+ AS=135000000000 AD=135000000000 PS=1500000 PD=1500000
M$644 \$678 VDD \$611 VDD sky130_fd_pr__pfet_01v8_lvt L=350000 W=450000
+ AS=135000000000 AD=135000000000 PS=1500000 PD=1500000
M$645 \$679 VDD \$612 VDD sky130_fd_pr__pfet_01v8_lvt L=350000 W=450000
+ AS=135000000000 AD=135000000000 PS=1500000 PD=1500000
M$646 \$680 VDD \$612 VDD sky130_fd_pr__pfet_01v8_lvt L=350000 W=450000
+ AS=135000000000 AD=135000000000 PS=1500000 PD=1500000
M$647 \$681 VDD \$613 VDD sky130_fd_pr__pfet_01v8_lvt L=350000 W=450000
+ AS=135000000000 AD=135000000000 PS=1500000 PD=1500000
M$648 \$682 VDD \$613 VDD sky130_fd_pr__pfet_01v8_lvt L=350000 W=450000
+ AS=135000000000 AD=135000000000 PS=1500000 PD=1500000
M$649 \$683 VDD \$614 VDD sky130_fd_pr__pfet_01v8_lvt L=350000 W=450000
+ AS=135000000000 AD=135000000000 PS=1500000 PD=1500000
M$650 \$684 VDD \$614 VDD sky130_fd_pr__pfet_01v8_lvt L=350000 W=450000
+ AS=135000000000 AD=135000000000 PS=1500000 PD=1500000
M$651 \$685 VDD \$615 VDD sky130_fd_pr__pfet_01v8_lvt L=350000 W=450000
+ AS=135000000000 AD=135000000000 PS=1500000 PD=1500000
M$652 \$686 VDD \$615 VDD sky130_fd_pr__pfet_01v8_lvt L=350000 W=450000
+ AS=135000000000 AD=135000000000 PS=1500000 PD=1500000
M$653 \$687 VDD \$616 VDD sky130_fd_pr__pfet_01v8_lvt L=350000 W=450000
+ AS=135000000000 AD=135000000000 PS=1500000 PD=1500000
M$654 \$688 VDD \$616 VDD sky130_fd_pr__pfet_01v8_lvt L=350000 W=450000
+ AS=135000000000 AD=135000000000 PS=1500000 PD=1500000
M$655 \$689 VDD \$617 VDD sky130_fd_pr__pfet_01v8_lvt L=350000 W=450000