* Extracted by KLayout with SKY130 LVS runset on : 07/11/2024 01:25

.SUBCKT RO_LVT_101St_x1 DUT_Gate RON Drain_Force GND Drain_Sense RO DUT_Header
+ DUT_Footer VDD
M$1 VDD \$290 \$190 VDD sky130_fd_pr__pfet_01v8_lvt L=350000 W=19000000
+ AS=4.275e+12 AD=4.275e+12 PS=30300000 PD=30300000
M$5 VDD \$190 \$147 VDD sky130_fd_pr__pfet_01v8_lvt L=350000 W=19000000
+ AS=4.275e+12 AD=4.275e+12 PS=30300000 PD=30300000
M$9 VDD \$147 \$148 VDD sky130_fd_pr__pfet_01v8_lvt L=350000 W=19000000
+ AS=4.275e+12 AD=4.275e+12 PS=30300000 PD=30300000
M$13 VDD \$148 \$149 VDD sky130_fd_pr__pfet_01v8_lvt L=350000 W=19000000
+ AS=4.275e+12 AD=4.275e+12 PS=30300000 PD=30300000
M$17 VDD \$149 \$150 VDD sky130_fd_pr__pfet_01v8_lvt L=350000 W=19000000
+ AS=4.275e+12 AD=4.275e+12 PS=30300000 PD=30300000
M$21 VDD \$150 \$151 VDD sky130_fd_pr__pfet_01v8_lvt L=350000 W=19000000
+ AS=4.275e+12 AD=4.275e+12 PS=30300000 PD=30300000
M$25 VDD \$151 \$152 VDD sky130_fd_pr__pfet_01v8_lvt L=350000 W=19000000
+ AS=4.275e+12 AD=4.275e+12 PS=30300000 PD=30300000
M$29 VDD \$152 \$153 VDD sky130_fd_pr__pfet_01v8_lvt L=350000 W=19000000
+ AS=4.275e+12 AD=4.275e+12 PS=30300000 PD=30300000
M$33 VDD \$153 \$154 VDD sky130_fd_pr__pfet_01v8_lvt L=350000 W=19000000
+ AS=4.275e+12 AD=4.275e+12 PS=30300000 PD=30300000
M$37 VDD \$154 \$155 VDD sky130_fd_pr__pfet_01v8_lvt L=350000 W=19000000
+ AS=4.275e+12 AD=4.275e+12 PS=30300000 PD=30300000
M$41 VDD \$155 \$156 VDD sky130_fd_pr__pfet_01v8_lvt L=350000 W=19000000
+ AS=4.275e+12 AD=4.275e+12 PS=30300000 PD=30300000
M$45 VDD \$156 \$213 VDD sky130_fd_pr__pfet_01v8_lvt L=350000 W=19000000
+ AS=4.275e+12 AD=4.275e+12 PS=30300000 PD=30300000
M$49 VDD \$213 \$157 VDD sky130_fd_pr__pfet_01v8_lvt L=350000 W=19000000
+ AS=4.275e+12 AD=4.275e+12 PS=30300000 PD=30300000
M$53 VDD \$157 \$158 VDD sky130_fd_pr__pfet_01v8_lvt L=350000 W=19000000
+ AS=4.275e+12 AD=4.275e+12 PS=30300000 PD=30300000
M$57 VDD \$158 \$159 VDD sky130_fd_pr__pfet_01v8_lvt L=350000 W=19000000
+ AS=4.275e+12 AD=4.275e+12 PS=30300000 PD=30300000
M$61 VDD \$159 \$160 VDD sky130_fd_pr__pfet_01v8_lvt L=350000 W=19000000
+ AS=4.275e+12 AD=4.275e+12 PS=30300000 PD=30300000
M$65 VDD \$160 \$161 VDD sky130_fd_pr__pfet_01v8_lvt L=350000 W=19000000
+ AS=4.275e+12 AD=4.275e+12 PS=30300000 PD=30300000
M$69 VDD \$161 \$226 VDD sky130_fd_pr__pfet_01v8_lvt L=350000 W=19000000
+ AS=4.275e+12 AD=4.275e+12 PS=30300000 PD=30300000
M$73 VDD \$226 \$162 VDD sky130_fd_pr__pfet_01v8_lvt L=350000 W=19000000
+ AS=4.275e+12 AD=4.275e+12 PS=30300000 PD=30300000
M$77 VDD \$162 \$231 VDD sky130_fd_pr__pfet_01v8_lvt L=350000 W=19000000
+ AS=4.275e+12 AD=4.275e+12 PS=30300000 PD=30300000
M$81 VDD \$231 \$234 VDD sky130_fd_pr__pfet_01v8_lvt L=350000 W=19000000
+ AS=4.275e+12 AD=4.275e+12 PS=30300000 PD=30300000
M$85 VDD \$234 \$163 VDD sky130_fd_pr__pfet_01v8_lvt L=350000 W=19000000
+ AS=4.275e+12 AD=4.275e+12 PS=30300000 PD=30300000
M$89 VDD \$163 \$164 VDD sky130_fd_pr__pfet_01v8_lvt L=350000 W=19000000
+ AS=4.275e+12 AD=4.275e+12 PS=30300000 PD=30300000
M$93 VDD \$164 \$165 VDD sky130_fd_pr__pfet_01v8_lvt L=350000 W=19000000
+ AS=4.275e+12 AD=4.275e+12 PS=30300000 PD=30300000
M$97 VDD \$165 \$243 VDD sky130_fd_pr__pfet_01v8_lvt L=350000 W=19000000
+ AS=4.275e+12 AD=4.275e+12 PS=30300000 PD=30300000
M$101 VDD \$243 \$166 VDD sky130_fd_pr__pfet_01v8_lvt L=350000 W=19000000
+ AS=4.275e+12 AD=4.275e+12 PS=30300000 PD=30300000
M$105 VDD \$166 \$167 VDD sky130_fd_pr__pfet_01v8_lvt L=350000 W=19000000
+ AS=4.275e+12 AD=4.275e+12 PS=30300000 PD=30300000
M$109 VDD \$167 \$168 VDD sky130_fd_pr__pfet_01v8_lvt L=350000 W=19000000
+ AS=4.275e+12 AD=4.275e+12 PS=30300000 PD=30300000
M$113 VDD \$168 \$169 VDD sky130_fd_pr__pfet_01v8_lvt L=350000 W=19000000
+ AS=4.275e+12 AD=4.275e+12 PS=30300000 PD=30300000
M$117 VDD \$169 \$170 VDD sky130_fd_pr__pfet_01v8_lvt L=350000 W=19000000
+ AS=4.275e+12 AD=4.275e+12 PS=30300000 PD=30300000
M$121 VDD \$170 \$171 VDD sky130_fd_pr__pfet_01v8_lvt L=350000 W=19000000
+ AS=4.275e+12 AD=4.275e+12 PS=30300000 PD=30300000
M$125 VDD \$171 \$172 VDD sky130_fd_pr__pfet_01v8_lvt L=350000 W=19000000
+ AS=4.275e+12 AD=4.275e+12 PS=30300000 PD=30300000
M$129 VDD \$172 \$173 VDD sky130_fd_pr__pfet_01v8_lvt L=350000 W=19000000
+ AS=4.275e+12 AD=4.275e+12 PS=30300000 PD=30300000
M$133 VDD \$173 \$174 VDD sky130_fd_pr__pfet_01v8_lvt L=350000 W=19000000
+ AS=4.275e+12 AD=4.275e+12 PS=30300000 PD=30300000
M$137 VDD \$174 \$175 VDD sky130_fd_pr__pfet_01v8_lvt L=350000 W=19000000
+ AS=4.275e+12 AD=4.275e+12 PS=30300000 PD=30300000
M$141 VDD \$175 \$176 VDD sky130_fd_pr__pfet_01v8_lvt L=350000 W=19000000
+ AS=4.275e+12 AD=4.275e+12 PS=30300000 PD=30300000
M$145 VDD \$176 \$177 VDD sky130_fd_pr__pfet_01v8_lvt L=350000 W=19000000
+ AS=4.275e+12 AD=4.275e+12 PS=30300000 PD=30300000
M$149 VDD \$177 \$178 VDD sky130_fd_pr__pfet_01v8_lvt L=350000 W=19000000
+ AS=4.275e+12 AD=4.275e+12 PS=30300000 PD=30300000
M$153 VDD \$178 \$179 VDD sky130_fd_pr__pfet_01v8_lvt L=350000 W=19000000
+ AS=4.275e+12 AD=4.275e+12 PS=30300000 PD=30300000
M$157 VDD \$179 \$180 VDD sky130_fd_pr__pfet_01v8_lvt L=350000 W=19000000
+ AS=4.275e+12 AD=4.275e+12 PS=30300000 PD=30300000
M$161 VDD \$180 \$181 VDD sky130_fd_pr__pfet_01v8_lvt L=350000 W=19000000
+ AS=4.275e+12 AD=4.275e+12 PS=30300000 PD=30300000
M$165 VDD \$181 \$182 VDD sky130_fd_pr__pfet_01v8_lvt L=350000 W=19000000
+ AS=4.275e+12 AD=4.275e+12 PS=30300000 PD=30300000
M$169 VDD \$182 \$183 VDD sky130_fd_pr__pfet_01v8_lvt L=350000 W=19000000
+ AS=4.275e+12 AD=4.275e+12 PS=30300000 PD=30300000
M$173 VDD \$183 \$184 VDD sky130_fd_pr__pfet_01v8_lvt L=350000 W=19000000
+ AS=4.275e+12 AD=4.275e+12 PS=30300000 PD=30300000
M$177 \$340 \$184 \$185 VDD sky130_fd_pr__pfet_01v8_lvt L=350000 W=19000000
+ AS=4.275e+12 AD=4.275e+12 PS=30300000 PD=30300000
M$181 VDD RON \$340 VDD sky130_fd_pr__pfet_01v8_lvt L=350000 W=190000000
+ AS=2.92125e+13 AD=2.92125e+13 PS=207050000 PD=207050000
M$221 \$341 \$185 \$187 VDD sky130_fd_pr__pfet_01v8_lvt L=350000 W=19000000
+ AS=4.275e+12 AD=4.275e+12 PS=30300000 PD=30300000
M$225 VDD DUT_Footer \$341 VDD sky130_fd_pr__pfet_01v8_lvt L=350000 W=190000000
+ AS=2.92125e+13 AD=2.92125e+13 PS=207050000 PD=207050000
M$265 \$342 \$187 \$189 VDD sky130_fd_pr__pfet_01v8_lvt L=350000 W=19000000
+ AS=4.275e+12 AD=4.275e+12 PS=30300000 PD=30300000
M$269 VDD RON \$342 VDD sky130_fd_pr__pfet_01v8_lvt L=350000 W=190000000
+ AS=2.92125e+13 AD=2.92125e+13 PS=207050000 PD=207050000
M$309 \$190 VDD \$191 VDD sky130_fd_pr__pfet_01v8_lvt L=350000 W=450000
+ AS=135000000000 AD=135000000000 PS=1500000 PD=1500000
M$310 VDD \$599 \$290 VDD sky130_fd_pr__pfet_01v8_lvt L=350000 W=19000000
+ AS=4.275e+12 AD=4.275e+12 PS=30300000 PD=30300000
M$314 \$190 VDD \$192 VDD sky130_fd_pr__pfet_01v8_lvt L=350000 W=450000
+ AS=135000000000 AD=135000000000 PS=1500000 PD=1500000
M$315 \$147 VDD \$193 VDD sky130_fd_pr__pfet_01v8_lvt L=350000 W=450000
+ AS=135000000000 AD=135000000000 PS=1500000 PD=1500000
M$316 VDD \$600 \$599 VDD sky130_fd_pr__pfet_01v8_lvt L=350000 W=19000000
+ AS=4.275e+12 AD=4.275e+12 PS=30300000 PD=30300000
M$320 \$147 VDD \$194 VDD sky130_fd_pr__pfet_01v8_lvt L=350000 W=450000
+ AS=135000000000 AD=135000000000 PS=1500000 PD=1500000
M$321 \$148 VDD \$195 VDD sky130_fd_pr__pfet_01v8_lvt L=350000 W=450000
+ AS=135000000000 AD=135000000000 PS=1500000 PD=1500000
M$322 VDD \$601 \$600 VDD sky130_fd_pr__pfet_01v8_lvt L=350000 W=19000000
+ AS=4.275e+12 AD=4.275e+12 PS=30300000 PD=30300000
M$326 \$148 VDD \$196 VDD sky130_fd_pr__pfet_01v8_lvt L=350000 W=450000
+ AS=135000000000 AD=135000000000 PS=1500000 PD=1500000
M$327 \$149 VDD \$197 VDD sky130_fd_pr__pfet_01v8_lvt L=350000 W=450000
+ AS=135000000000 AD=135000000000 PS=1500000 PD=1500000
M$328 VDD \$602 \$601 VDD sky130_fd_pr__pfet_01v8_lvt L=350000 W=19000000
+ AS=4.275e+12 AD=4.275e+12 PS=30300000 PD=30300000
M$332 \$149 VDD \$198 VDD sky130_fd_pr__pfet_01v8_lvt L=350000 W=450000
+ AS=135000000000 AD=135000000000 PS=1500000 PD=1500000
M$333 \$150 VDD \$199 VDD sky130_fd_pr__pfet_01v8_lvt L=350000 W=450000
+ AS=135000000000 AD=135000000000 PS=1500000 PD=1500000
M$334 VDD \$653 \$602 VDD sky130_fd_pr__pfet_01v8_lvt L=350000 W=19000000
+ AS=4.275e+12 AD=4.275e+12 PS=30300000 PD=30300000
M$338 \$150 VDD \$200 VDD sky130_fd_pr__pfet_01v8_lvt L=350000 W=450000
+ AS=135000000000 AD=135000000000 PS=1500000 PD=1500000
M$339 \$151 VDD \$201 VDD sky130_fd_pr__pfet_01v8_lvt L=350000 W=450000
+ AS=135000000000 AD=135000000000 PS=1500000 PD=1500000
M$340 VDD \$603 \$653 VDD sky130_fd_pr__pfet_01v8_lvt L=350000 W=19000000
+ AS=4.275e+12 AD=4.275e+12 PS=30300000 PD=30300000
M$344 \$151 VDD \$202 VDD sky130_fd_pr__pfet_01v8_lvt L=350000 W=450000
+ AS=135000000000 AD=135000000000 PS=1500000 PD=1500000
M$345 \$152 VDD \$203 VDD sky130_fd_pr__pfet_01v8_lvt L=350000 W=450000
+ AS=135000000000 AD=135000000000 PS=1500000 PD=1500000
M$346 VDD \$604 \$603 VDD sky130_fd_pr__pfet_01v8_lvt L=350000 W=19000000
+ AS=4.275e+12 AD=4.275e+12 PS=30300000 PD=30300000
M$350 \$152 VDD \$204 VDD sky130_fd_pr__pfet_01v8_lvt L=350000 W=450000
+ AS=135000000000 AD=135000000000 PS=1500000 PD=1500000
M$351 \$153 VDD \$205 VDD sky130_fd_pr__pfet_01v8_lvt L=350000 W=450000
+ AS=135000000000 AD=135000000000 PS=1500000 PD=1500000
M$352 VDD \$605 \$604 VDD sky130_fd_pr__pfet_01v8_lvt L=350000 W=19000000
+ AS=4.275e+12 AD=4.275e+12 PS=30300000 PD=30300000
M$356 \$153 VDD \$206 VDD sky130_fd_pr__pfet_01v8_lvt L=350000 W=450000
+ AS=135000000000 AD=135000000000 PS=1500000 PD=1500000
M$357 \$154 VDD \$207 VDD sky130_fd_pr__pfet_01v8_lvt L=350000 W=450000
+ AS=135000000000 AD=135000000000 PS=1500000 PD=1500000
M$358 VDD \$606 \$605 VDD sky130_fd_pr__pfet_01v8_lvt L=350000 W=19000000
+ AS=4.275e+12 AD=4.275e+12 PS=30300000 PD=30300000
M$362 \$154 VDD \$208 VDD sky130_fd_pr__pfet_01v8_lvt L=350000 W=450000
+ AS=135000000000 AD=135000000000 PS=1500000 PD=1500000
M$363 \$155 VDD \$209 VDD sky130_fd_pr__pfet_01v8_lvt L=350000 W=450000
+ AS=135000000000 AD=135000000000 PS=1500000 PD=1500000
M$364 VDD \$607 \$606 VDD sky130_fd_pr__pfet_01v8_lvt L=350000 W=19000000
+ AS=4.275e+12 AD=4.275e+12 PS=30300000 PD=30300000
M$368 \$155 VDD \$210 VDD sky130_fd_pr__pfet_01v8_lvt L=350000 W=450000
+ AS=135000000000 AD=135000000000 PS=1500000 PD=1500000
M$369 \$156 VDD \$211 VDD sky130_fd_pr__pfet_01v8_lvt L=350000 W=450000
+ AS=135000000000 AD=135000000000 PS=1500000 PD=1500000
M$370 VDD \$608 \$607 VDD sky130_fd_pr__pfet_01v8_lvt L=350000 W=19000000
+ AS=4.275e+12 AD=4.275e+12 PS=30300000 PD=30300000
M$374 \$156 VDD \$212 VDD sky130_fd_pr__pfet_01v8_lvt L=350000 W=450000
+ AS=135000000000 AD=135000000000 PS=1500000 PD=1500000
M$375 \$213 VDD \$214 VDD sky130_fd_pr__pfet_01v8_lvt L=350000 W=450000
+ AS=135000000000 AD=135000000000 PS=1500000 PD=1500000
M$376 VDD \$609 \$608 VDD sky130_fd_pr__pfet_01v8_lvt L=350000 W=19000000
+ AS=4.275e+12 AD=4.275e+12 PS=30300000 PD=30300000
M$380 \$213 VDD \$215 VDD sky130_fd_pr__pfet_01v8_lvt L=350000 W=450000
+ AS=135000000000 AD=135000000000 PS=1500000 PD=1500000
M$381 \$157 VDD \$216 VDD sky130_fd_pr__pfet_01v8_lvt L=350000 W=450000
+ AS=135000000000 AD=135000000000 PS=1500000 PD=1500000
M$382 VDD \$670 \$609 VDD sky130_fd_pr__pfet_01v8_lvt L=350000 W=19000000
+ AS=4.275e+12 AD=4.275e+12 PS=30300000 PD=30300000
M$386 \$157 VDD \$217 VDD sky130_fd_pr__pfet_01v8_lvt L=350000 W=450000
+ AS=135000000000 AD=135000000000 PS=1500000 PD=1500000
M$387 \$158 VDD \$218 VDD sky130_fd_pr__pfet_01v8_lvt L=350000 W=450000
+ AS=135000000000 AD=135000000000 PS=1500000 PD=1500000
M$388 VDD \$673 \$670 VDD sky130_fd_pr__pfet_01v8_lvt L=350000 W=19000000
+ AS=4.275e+12 AD=4.275e+12 PS=30300000 PD=30300000
M$392 \$158 VDD \$219 VDD sky130_fd_pr__pfet_01v8_lvt L=350000 W=450000
+ AS=135000000000 AD=135000000000 PS=1500000 PD=1500000
M$393 \$159 VDD \$220 VDD sky130_fd_pr__pfet_01v8_lvt L=350000 W=450000
+ AS=135000000000 AD=135000000000 PS=1500000 PD=1500000
M$394 VDD \$676 \$673 VDD sky130_fd_pr__pfet_01v8_lvt L=350000 W=19000000
+ AS=4.275e+12 AD=4.275e+12 PS=30300000 PD=30300000
M$398 \$159 VDD \$221 VDD sky130_fd_pr__pfet_01v8_lvt L=350000 W=450000
+ AS=135000000000 AD=135000000000 PS=1500000 PD=1500000
M$399 \$160 VDD \$222 VDD sky130_fd_pr__pfet_01v8_lvt L=350000 W=450000
+ AS=135000000000 AD=135000000000 PS=1500000 PD=1500000
M$400 VDD \$610 \$676 VDD sky130_fd_pr__pfet_01v8_lvt L=350000 W=19000000
+ AS=4.275e+12 AD=4.275e+12 PS=30300000 PD=30300000
M$404 \$160 VDD \$223 VDD sky130_fd_pr__pfet_01v8_lvt L=350000 W=450000
+ AS=135000000000 AD=135000000000 PS=1500000 PD=1500000
M$405 \$161 VDD \$224 VDD sky130_fd_pr__pfet_01v8_lvt L=350000 W=450000
+ AS=135000000000 AD=135000000000 PS=1500000 PD=1500000
M$406 VDD \$611 \$610 VDD sky130_fd_pr__pfet_01v8_lvt L=350000 W=19000000
+ AS=4.275e+12 AD=4.275e+12 PS=30300000 PD=30300000
M$410 \$161 VDD \$225 VDD sky130_fd_pr__pfet_01v8_lvt L=350000 W=450000
+ AS=135000000000 AD=135000000000 PS=1500000 PD=1500000
M$411 \$226 VDD \$227 VDD sky130_fd_pr__pfet_01v8_lvt L=350000 W=450000
+ AS=135000000000 AD=135000000000 PS=1500000 PD=1500000
M$412 VDD \$612 \$611 VDD sky130_fd_pr__pfet_01v8_lvt L=350000 W=19000000
+ AS=4.275e+12 AD=4.275e+12 PS=30300000 PD=30300000
M$416 \$226 VDD \$228 VDD sky130_fd_pr__pfet_01v8_lvt L=350000 W=450000
+ AS=135000000000 AD=135000000000 PS=1500000 PD=1500000
M$417 \$162 VDD \$229 VDD sky130_fd_pr__pfet_01v8_lvt L=350000 W=450000
+ AS=135000000000 AD=135000000000 PS=1500000 PD=1500000
M$418 VDD \$613 \$612 VDD sky130_fd_pr__pfet_01v8_lvt L=350000 W=19000000
+ AS=4.275e+12 AD=4.275e+12 PS=30300000 PD=30300000
M$422 \$162 VDD \$230 VDD sky130_fd_pr__pfet_01v8_lvt L=350000 W=450000
+ AS=135000000000 AD=135000000000 PS=1500000 PD=1500000
M$423 \$231 VDD \$232 VDD sky130_fd_pr__pfet_01v8_lvt L=350000 W=450000
+ AS=135000000000 AD=135000000000 PS=1500000 PD=1500000
M$424 VDD \$614 \$613 VDD sky130_fd_pr__pfet_01v8_lvt L=350000 W=19000000
+ AS=4.275e+12 AD=4.275e+12 PS=30300000 PD=30300000
M$428 \$231 VDD \$233 VDD sky130_fd_pr__pfet_01v8_lvt L=350000 W=450000
+ AS=135000000000 AD=135000000000 PS=1500000 PD=1500000
M$429 \$234 VDD \$235 VDD sky130_fd_pr__pfet_01v8_lvt L=350000 W=450000
+ AS=135000000000 AD=135000000000 PS=1500000 PD=1500000
M$430 VDD \$615 \$614 VDD sky130_fd_pr__pfet_01v8_lvt L=350000 W=19000000
+ AS=4.275e+12 AD=4.275e+12 PS=30300000 PD=30300000
M$434 \$234 VDD \$236 VDD sky130_fd_pr__pfet_01v8_lvt L=350000 W=450000
+ AS=135000000000 AD=135000000000 PS=1500000 PD=1500000
M$435 \$163 VDD \$237 VDD sky130_fd_pr__pfet_01v8_lvt L=350000 W=450000
+ AS=135000000000 AD=135000000000 PS=1500000 PD=1500000
M$436 VDD \$691 \$615 VDD sky130_fd_pr__pfet_01v8_lvt L=350000 W=19000000
+ AS=4.275e+12 AD=4.275e+12 PS=30300000 PD=30300000
M$440 \$163 VDD \$238 VDD sky130_fd_pr__pfet_01v8_lvt L=350000 W=450000
+ AS=135000000000 AD=135000000000 PS=1500000 PD=1500000
M$441 \$164 VDD \$239 VDD sky130_fd_pr__pfet_01v8_lvt L=350000 W=450000
+ AS=135000000000 AD=135000000000 PS=1500000 PD=1500000
M$442 VDD \$616 \$691 VDD sky130_fd_pr__pfet_01v8_lvt L=350000 W=19000000
+ AS=4.275e+12 AD=4.275e+12 PS=30300000 PD=30300000
M$446 \$164 VDD \$240 VDD sky130_fd_pr__pfet_01v8_lvt L=350000 W=450000
+ AS=135000000000 AD=135000000000 PS=1500000 PD=1500000
M$447 \$165 VDD \$241 VDD sky130_fd_pr__pfet_01v8_lvt L=350000 W=450000
+ AS=135000000000 AD=135000000000 PS=1500000 PD=1500000
M$448 VDD \$696 \$616 VDD sky130_fd_pr__pfet_01v8_lvt L=350000 W=19000000
+ AS=4.275e+12 AD=4.275e+12 PS=30300000 PD=30300000
M$452 \$165 VDD \$242 VDD sky130_fd_pr__pfet_01v8_lvt L=350000 W=450000
+ AS=135000000000 AD=135000000000 PS=1500000 PD=1500000
M$453 \$243 VDD \$244 VDD sky130_fd_pr__pfet_01v8_lvt L=350000 W=450000
+ AS=135000000000 AD=135000000000 PS=1500000 PD=1500000
M$454 VDD \$617 \$696 VDD sky130_fd_pr__pfet_01v8_lvt L=350000 W=19000000
+ AS=4.275e+12 AD=4.275e+12 PS=30300000 PD=30300000
M$458 \$243 VDD \$245 VDD sky130_fd_pr__pfet_01v8_lvt L=350000 W=450000
+ AS=135000000000 AD=135000000000 PS=1500000 PD=1500000
M$459 \$166 VDD \$246 VDD sky130_fd_pr__pfet_01v8_lvt L=350000 W=450000
+ AS=135000000000 AD=135000000000 PS=1500000 PD=1500000
M$460 VDD \$618 \$617 VDD sky130_fd_pr__pfet_01v8_lvt L=350000 W=19000000
+ AS=4.275e+12 AD=4.275e+12 PS=30300000 PD=30300000
M$464 \$166 VDD \$247 VDD sky130_fd_pr__pfet_01v8_lvt L=350000 W=450000
+ AS=135000000000 AD=135000000000 PS=1500000 PD=1500000
M$465 \$167 VDD \$248 VDD sky130_fd_pr__pfet_01v8_lvt L=350000 W=450000
+ AS=135000000000 AD=135000000000 PS=1500000 PD=1500000
M$466 VDD \$703 \$618 VDD sky130_fd_pr__pfet_01v8_lvt L=350000 W=19000000
+ AS=4.275e+12 AD=4.275e+12 PS=30300000 PD=30300000
M$470 \$167 VDD \$249 VDD sky130_fd_pr__pfet_01v8_lvt L=350000 W=450000
+ AS=135000000000 AD=135000000000 PS=1500000 PD=1500000
M$471 \$168 VDD \$250 VDD sky130_fd_pr__pfet_01v8_lvt L=350000 W=450000
+ AS=135000000000 AD=135000000000 PS=1500000 PD=1500000
M$472 VDD \$619 \$703 VDD sky130_fd_pr__pfet_01v8_lvt L=350000 W=19000000
+ AS=4.275e+12 AD=4.275e+12 PS=30300000 PD=30300000
M$476 \$168 VDD \$251 VDD sky130_fd_pr__pfet_01v8_lvt L=350000 W=450000
+ AS=135000000000 AD=135000000000 PS=1500000 PD=1500000
M$477 \$169 VDD \$252 VDD sky130_fd_pr__pfet_01v8_lvt L=350000 W=450000
+ AS=135000000000 AD=135000000000 PS=1500000 PD=1500000
M$478 VDD \$620 \$619 VDD sky130_fd_pr__pfet_01v8_lvt L=350000 W=19000000
+ AS=4.275e+12 AD=4.275e+12 PS=30300000 PD=30300000
M$482 \$169 VDD \$253 VDD sky130_fd_pr__pfet_01v8_lvt L=350000 W=450000
+ AS=135000000000 AD=135000000000 PS=1500000 PD=1500000
M$483 \$170 VDD \$254 VDD sky130_fd_pr__pfet_01v8_lvt L=350000 W=450000
+ AS=135000000000 AD=135000000000 PS=1500000 PD=1500000
M$484 VDD \$621 \$620 VDD sky130_fd_pr__pfet_01v8_lvt L=350000 W=19000000
+ AS=4.275e+12 AD=4.275e+12 PS=30300000 PD=30300000
M$488 \$170 VDD \$255 VDD sky130_fd_pr__pfet_01v8_lvt L=350000 W=450000
+ AS=135000000000 AD=135000000000 PS=1500000 PD=1500000
M$489 \$171 VDD \$256 VDD sky130_fd_pr__pfet_01v8_lvt L=350000 W=450000
+ AS=135000000000 AD=135000000000 PS=1500000 PD=1500000
M$490 VDD \$622 \$621 VDD sky130_fd_pr__pfet_01v8_lvt L=350000 W=19000000
+ AS=4.275e+12 AD=4.275e+12 PS=30300000 PD=30300000
M$494 \$171 VDD \$257 VDD sky130_fd_pr__pfet_01v8_lvt L=350000 W=450000
+ AS=135000000000 AD=135000000000 PS=1500000 PD=1500000
M$495 \$172 VDD \$258 VDD sky130_fd_pr__pfet_01v8_lvt L=350000 W=450000
+ AS=135000000000 AD=135000000000 PS=1500000 PD=1500000
M$496 VDD \$623 \$622 VDD sky130_fd_pr__pfet_01v8_lvt L=350000 W=19000000
+ AS=4.275e+12 AD=4.275e+12 PS=30300000 PD=30300000
M$500 \$172 VDD \$259 VDD sky130_fd_pr__pfet_01v8_lvt L=350000 W=450000
+ AS=135000000000 AD=135000000000 PS=1500000 PD=1500000
M$501 \$173 VDD \$260 VDD sky130_fd_pr__pfet_01v8_lvt L=350000 W=450000
+ AS=135000000000 AD=135000000000 PS=1500000 PD=1500000
M$502 VDD \$624 \$623 VDD sky130_fd_pr__pfet_01v8_lvt L=350000 W=19000000
+ AS=4.275e+12 AD=4.275e+12 PS=30300000 PD=30300000
M$506 \$173 VDD \$261 VDD sky130_fd_pr__pfet_01v8_lvt L=350000 W=450000
+ AS=135000000000 AD=135000000000 PS=1500000 PD=1500000
M$507 \$174 VDD \$262 VDD sky130_fd_pr__pfet_01v8_lvt L=350000 W=450000
+ AS=135000000000 AD=135000000000 PS=1500000 PD=1500000
M$508 VDD \$625 \$624 VDD sky130_fd_pr__pfet_01v8_lvt L=350000 W=19000000
+ AS=4.275e+12 AD=4.275e+12 PS=30300000 PD=30300000
M$512 \$174 VDD \$263 VDD sky130_fd_pr__pfet_01v8_lvt L=350000 W=450000
+ AS=135000000000 AD=135000000000 PS=1500000 PD=1500000
M$513 \$175 VDD \$264 VDD sky130_fd_pr__pfet_01v8_lvt L=350000 W=450000
+ AS=135000000000 AD=135000000000 PS=1500000 PD=1500000
M$514 VDD \$626 \$625 VDD sky130_fd_pr__pfet_01v8_lvt L=350000 W=19000000
+ AS=4.275e+12 AD=4.275e+12 PS=30300000 PD=30300000
M$518 \$175 VDD \$265 VDD sky130_fd_pr__pfet_01v8_lvt L=350000 W=450000
+ AS=135000000000 AD=135000000000 PS=1500000 PD=1500000
M$519 \$176 VDD \$266 VDD sky130_fd_pr__pfet_01v8_lvt L=350000 W=450000
+ AS=135000000000 AD=135000000000 PS=1500000 PD=1500000
M$520 VDD \$627 \$626 VDD sky130_fd_pr__pfet_01v8_lvt L=350000 W=19000000
+ AS=4.275e+12 AD=4.275e+12 PS=30300000 PD=30300000
M$524 \$176 VDD \$267 VDD sky130_fd_pr__pfet_01v8_lvt L=350000 W=450000
+ AS=135000000000 AD=135000000000 PS=1500000 PD=1500000
M$525 \$177 VDD \$268 VDD sky130_fd_pr__pfet_01v8_lvt L=350000 W=450000
+ AS=135000000000 AD=135000000000 PS=1500000 PD=1500000
M$526 VDD \$628 \$627 VDD sky130_fd_pr__pfet_01v8_lvt L=350000 W=19000000
+ AS=4.275e+12 AD=4.275e+12 PS=30300000 PD=30300000
M$530 \$177 VDD \$269 VDD sky130_fd_pr__pfet_01v8_lvt L=350000 W=450000
+ AS=135000000000 AD=135000000000 PS=1500000 PD=1500000
M$531 \$178 VDD \$270 VDD sky130_fd_pr__pfet_01v8_lvt L=350000 W=450000
+ AS=135000000000 AD=135000000000 PS=1500000 PD=1500000
M$532 VDD \$629 \$628 VDD sky130_fd_pr__pfet_01v8_lvt L=350000 W=19000000
+ AS=4.275e+12 AD=4.275e+12 PS=30300000 PD=30300000
M$536 \$178 VDD \$271 VDD sky130_fd_pr__pfet_01v8_lvt L=350000 W=450000
+ AS=135000000000 AD=135000000000 PS=1500000 PD=1500000
M$537 \$179 VDD \$272 VDD sky130_fd_pr__pfet_01v8_lvt L=350000 W=450000
+ AS=135000000000 AD=135000000000 PS=1500000 PD=1500000
M$538 VDD \$630 \$629 VDD sky130_fd_pr__pfet_01v8_lvt L=350000 W=19000000
+ AS=4.275e+12 AD=4.275e+12 PS=30300000 PD=30300000
M$542 \$179 VDD \$273 VDD sky130_fd_pr__pfet_01v8_lvt L=350000 W=450000
+ AS=135000000000 AD=135000000000 PS=1500000 PD=1500000
M$543 \$180 VDD \$274 VDD sky130_fd_pr__pfet_01v8_lvt L=350000 W=450000
+ AS=135000000000 AD=135000000000 PS=1500000 PD=1500000
M$544 VDD \$730 \$630 VDD sky130_fd_pr__pfet_01v8_lvt L=350000 W=19000000
+ AS=4.275e+12 AD=4.275e+12 PS=30300000 PD=30300000
M$548 \$180 VDD \$275 VDD sky130_fd_pr__pfet_01v8_lvt L=350000 W=450000
+ AS=135000000000 AD=135000000000 PS=1500000 PD=1500000
M$549 \$181 VDD \$276 VDD sky130_fd_pr__pfet_01v8_lvt L=350000 W=450000
+ AS=135000000000 AD=135000000000 PS=1500000 PD=1500000
M$550 VDD \$733 \$730 VDD sky130_fd_pr__pfet_01v8_lvt L=350000 W=19000000
+ AS=4.275e+12 AD=4.275e+12 PS=30300000 PD=30300000
M$554 \$181 VDD \$277 VDD sky130_fd_pr__pfet_01v8_lvt L=350000 W=450000
+ AS=135000000000 AD=135000000000 PS=1500000 PD=1500000
M$555 \$182 VDD \$278 VDD sky130_fd_pr__pfet_01v8_lvt L=350000 W=450000
+ AS=135000000000 AD=135000000000 PS=1500000 PD=1500000
M$556 VDD \$736 \$733 VDD sky130_fd_pr__pfet_01v8_lvt L=350000 W=19000000
+ AS=4.275e+12 AD=4.275e+12 PS=30300000 PD=30300000
M$560 \$182 VDD \$279 VDD sky130_fd_pr__pfet_01v8_lvt L=350000 W=450000
+ AS=135000000000 AD=135000000000 PS=1500000 PD=1500000
M$561 \$183 VDD \$280 VDD sky130_fd_pr__pfet_01v8_lvt L=350000 W=450000
+ AS=135000000000 AD=135000000000 PS=1500000 PD=1500000
M$562 VDD \$631 \$736 VDD sky130_fd_pr__pfet_01v8_lvt L=350000 W=19000000
+ AS=4.275e+12 AD=4.275e+12 PS=30300000 PD=30300000
M$566 \$183 VDD \$281 VDD sky130_fd_pr__pfet_01v8_lvt L=350000 W=450000
+ AS=135000000000 AD=135000000000 PS=1500000 PD=1500000
M$567 \$184 VDD \$282 VDD sky130_fd_pr__pfet_01v8_lvt L=350000 W=450000
+ AS=135000000000 AD=135000000000 PS=1500000 PD=1500000
M$568 VDD \$632 \$631 VDD sky130_fd_pr__pfet_01v8_lvt L=350000 W=19000000
+ AS=4.275e+12 AD=4.275e+12 PS=30300000 PD=30300000
M$572 \$184 VDD \$283 VDD sky130_fd_pr__pfet_01v8_lvt L=350000 W=450000
+ AS=135000000000 AD=135000000000 PS=1500000 PD=1500000
M$573 VDD \$633 \$632 VDD sky130_fd_pr__pfet_01v8_lvt L=350000 W=19000000
+ AS=4.275e+12 AD=4.275e+12 PS=30300000 PD=30300000
M$577 VDD \$634 \$633 VDD sky130_fd_pr__pfet_01v8_lvt L=350000 W=19000000
+ AS=4.275e+12 AD=4.275e+12 PS=30300000 PD=30300000
M$581 VDD \$635 \$634 VDD sky130_fd_pr__pfet_01v8_lvt L=350000 W=19000000
+ AS=4.275e+12 AD=4.275e+12 PS=30300000 PD=30300000
M$585 \$185 RO DUT_Gate VDD sky130_fd_pr__pfet_01v8_lvt L=350000 W=450000
+ AS=135000000000 AD=135000000000 PS=1500000 PD=1500000
M$586 \$185 RO \$284 VDD sky130_fd_pr__pfet_01v8_lvt L=350000 W=450000
+ AS=135000000000 AD=135000000000 PS=1500000 PD=1500000
M$587 VDD \$749 \$635 VDD sky130_fd_pr__pfet_01v8_lvt L=350000 W=19000000
+ AS=4.275e+12 AD=4.275e+12 PS=30300000 PD=30300000
M$591 VDD \$636 \$749 VDD sky130_fd_pr__pfet_01v8_lvt L=350000 W=19000000
+ AS=4.275e+12 AD=4.275e+12 PS=30300000 PD=30300000
M$595 VDD \$637 \$636 VDD sky130_fd_pr__pfet_01v8_lvt L=350000 W=19000000
+ AS=4.275e+12 AD=4.275e+12 PS=30300000 PD=30300000
M$599 Drain_Force RO \$187 VDD sky130_fd_pr__pfet_01v8_lvt L=350000 W=1900000
+ AS=570000000000 AD=570000000000 PS=4400000 PD=4400000
M$600 VDD \$638 \$637 VDD sky130_fd_pr__pfet_01v8_lvt L=350000 W=19000000
+ AS=4.275e+12 AD=4.275e+12 PS=30300000 PD=30300000
M$602 Drain_Sense RO \$187 VDD sky130_fd_pr__pfet_01v8_lvt L=350000 W=1900000
+ AS=570000000000 AD=570000000000 PS=4400000 PD=4400000
M$605 VDD \$639 \$638 VDD sky130_fd_pr__pfet_01v8_lvt L=350000 W=19000000
+ AS=4.275e+12 AD=4.275e+12 PS=30300000 PD=30300000
M$609 VDD \$640 \$639 VDD sky130_fd_pr__pfet_01v8_lvt L=350000 W=19000000
+ AS=4.275e+12 AD=4.275e+12 PS=30300000 PD=30300000
M$613 VDD \$189 \$640 VDD sky130_fd_pr__pfet_01v8_lvt L=350000 W=19000000
+ AS=4.275e+12 AD=4.275e+12 PS=30300000 PD=30300000
M$617 \$189 VDD GND VDD sky130_fd_pr__pfet_01v8_lvt L=350000 W=450000
+ AS=135000000000 AD=135000000000 PS=1500000 PD=1500000
M$618 \$189 VDD \$286 VDD sky130_fd_pr__pfet_01v8_lvt L=350000 W=450000
+ AS=135000000000 AD=135000000000 PS=1500000 PD=1500000
M$619 \$641 VDD \$290 VDD sky130_fd_pr__pfet_01v8_lvt L=350000 W=450000
+ AS=135000000000 AD=135000000000 PS=1500000 PD=1500000
M$620 \$642 VDD \$290 VDD sky130_fd_pr__pfet_01v8_lvt L=350000 W=450000
+ AS=135000000000 AD=135000000000 PS=1500000 PD=1500000
M$621 \$643 VDD \$599 VDD sky130_fd_pr__pfet_01v8_lvt L=350000 W=450000
+ AS=135000000000 AD=135000000000 PS=1500000 PD=1500000
M$622 \$644 VDD \$599 VDD sky130_fd_pr__pfet_01v8_lvt L=350000 W=450000
+ AS=135000000000 AD=135000000000 PS=1500000 PD=1500000
M$623 \$645 VDD \$600 VDD sky130_fd_pr__pfet_01v8_lvt L=350000 W=450000
+ AS=135000000000 AD=135000000000 PS=1500000 PD=1500000
M$624 \$646 VDD \$600 VDD sky130_fd_pr__pfet_01v8_lvt L=350000 W=450000
+ AS=135000000000 AD=135000000000 PS=1500000 PD=1500000
M$625 \$647 VDD \$601 VDD sky130_fd_pr__pfet_01v8_lvt L=350000 W=450000
+ AS=135000000000 AD=135000000000 PS=1500000 PD=1500000
M$626 \$648 VDD \$601 VDD sky130_fd_pr__pfet_01v8_lvt L=350000 W=450000
+ AS=135000000000 AD=135000000000 PS=1500000 PD=1500000
M$627 \$649 VDD \$602 VDD sky130_fd_pr__pfet_01v8_lvt L=350000 W=450000
+ AS=135000000000 AD=135000000000 PS=1500000 PD=1500000
M$628 \$650 VDD \$602 VDD sky130_fd_pr__pfet_01v8_lvt L=350000 W=450000
+ AS=135000000000 AD=135000000000 PS=1500000 PD=1500000
M$629 \$651 VDD \$653 VDD sky130_fd_pr__pfet_01v8_lvt L=350000 W=450000
+ AS=135000000000 AD=135000000000 PS=1500000 PD=1500000
M$630 \$652 VDD \$653 VDD sky130_fd_pr__pfet_01v8_lvt L=350000 W=450000
+ AS=135000000000 AD=135000000000 PS=1500000 PD=1500000
M$631 \$654 VDD \$603 VDD sky130_fd_pr__pfet_01v8_lvt L=350000 W=450000
+ AS=135000000000 AD=135000000000 PS=1500000 PD=1500000
M$632 \$655 VDD \$603 VDD sky130_fd_pr__pfet_01v8_lvt L=350000 W=450000
+ AS=135000000000 AD=135000000000 PS=1500000 PD=1500000
M$633 \$656 VDD \$604 VDD sky130_fd_pr__pfet_01v8_lvt L=350000 W=450000
+ AS=135000000000 AD=135000000000 PS=1500000 PD=1500000
M$634 \$657 VDD \$604 VDD sky130_fd_pr__pfet_01v8_lvt L=350000 W=450000
+ AS=135000000000 AD=135000000000 PS=1500000 PD=1500000
M$635 \$658 VDD \$605 VDD sky130_fd_pr__pfet_01v8_lvt L=350000 W=450000
+ AS=135000000000 AD=135000000000 PS=1500000 PD=1500000
M$636 \$659 VDD \$605 VDD sky130_fd_pr__pfet_01v8_lvt L=350000 W=450000
+ AS=135000000000 AD=135000000000 PS=1500000 PD=1500000
M$637 \$660 VDD \$606 VDD sky130_fd_pr__pfet_01v8_lvt L=350000 W=450000
+ AS=135000000000 AD=135000000000 PS=1500000 PD=1500000
M$638 \$661 VDD \$606 VDD sky130_fd_pr__pfet_01v8_lvt L=350000 W=450000
+ AS=135000000000 AD=135000000000 PS=1500000 PD=1500000
M$639 \$662 VDD \$607 VDD sky130_fd_pr__pfet_01v8_lvt L=350000 W=450000
+ AS=135000000000 AD=135000000000 PS=1500000 PD=1500000
M$640 \$663 VDD \$607 VDD sky130_fd_pr__pfet_01v8_lvt L=350000 W=450000
+ AS=135000000000 AD=135000000000 PS=1500000 PD=1500000
M$641 \$664 VDD \$608 VDD sky130_fd_pr__pfet_01v8_lvt L=350000 W=450000
+ AS=135000000000 AD=135000000000 PS=1500000 PD=1500000
M$642 \$665 VDD \$608 VDD sky130_fd_pr__pfet_01v8_lvt L=350000 W=450000
+ AS=135000000000 AD=135000000000 PS=1500000 PD=1500000
M$643 \$666 VDD \$609 VDD sky130_fd_pr__pfet_01v8_lvt L=350000 W=450000
+ AS=135000000000 AD=135000000000 PS=1500000 PD=1500000
M$644 \$667 VDD \$609 VDD sky130_fd_pr__pfet_01v8_lvt L=350000 W=450000
+ AS=135000000000 AD=135000000000 PS=1500000 PD=1500000
M$645 \$668 VDD \$670 VDD sky130_fd_pr__pfet_01v8_lvt L=350000 W=450000
+ AS=135000000000 AD=135000000000 PS=1500000 PD=1500000
M$646 \$669 VDD \$670 VDD sky130_fd_pr__pfet_01v8_lvt L=350000 W=450000
+ AS=135000000000 AD=135000000000 PS=1500000 PD=1500000
M$647 \$671 VDD \$673 VDD sky130_fd_pr__pfet_01v8_lvt L=350000 W=450000
+ AS=135000000000 AD=135000000000 PS=1500000 PD=1500000
M$648 \$672 VDD \$673 VDD sky130_fd_pr__pfet_01v8_lvt L=350000 W=450000
+ AS=135000000000 AD=135000000000 PS=1500000 PD=1500000
M$649 \$674 VDD \$676 VDD sky130_fd_pr__pfet_01v8_lvt L=350000 W=450000
+ AS=135000000000 AD=135000000000 PS=1500000 PD=1500000
M$650 \$675 VDD \$676 VDD sky130_fd_pr__pfet_01v8_lvt L=350000 W=450000
+ AS=135000000000 AD=135000000000 PS=1500000 PD=1500000
M$651 \$677 VDD \$610 VDD sky130_fd_pr__pfet_01v8_lvt L=350000 W=450000
+ AS=135000000000 AD=135000000000 PS=1500000 PD=1500000
M$652 \$678 VDD \$610 VDD sky130_fd_pr__pfet_01v8_lvt L=350000 W=450000
+ AS=135000000000 AD=135000000000 PS=1500000 PD=1500000
M$653 \$679 VDD \$611 VDD sky130_fd_pr__pfet_01v8_lvt L=350000 W=450000
+ AS=135000000000 AD=135000000000 PS=1500000 PD=1500000
M$654 \$680 VDD \$611 VDD sky130_fd_pr__pfet_01v8_lvt L=350000 W=450000
+ AS=135000000000 AD=135000000000 PS=1500000 PD=1500000
M$655 \$681 VDD \$612 VDD sky130_fd_pr__pfet_01v8_lvt L=350000 W=450000